17
gdb_8908
C      0.073000    1.575500   -0.038400
C      0.015200    0.046200    0.045000
C      0.758700   -0.486000    1.273600
O      2.115500   -0.089500    1.160400
C     -1.432100   -0.497300    0.051200
O     -2.197500   -0.068700    1.165000
C     -2.120800   -0.177800   -1.217300
N     -2.660800    0.100300   -2.200400
H      1.113900    1.902500   -0.042500
H     -0.413100    1.946000   -0.945600
H     -0.409300    2.040600    0.829900
H      0.507300   -0.372800   -0.842100
H      0.292200   -0.085700    2.185200
H      0.668400   -1.584100    1.311500
H      2.568000   -0.322600    1.975900
H     -1.398000   -1.589700    0.136400
H     -2.356700    0.877900    1.077700
