17
gdb_17465
C      0.114300    1.491300   -0.143500
C     -0.068500    0.016900    0.098200
C     -1.393100   -0.664800   -0.274500
C     -1.522500   -1.870100    0.657200
N     -0.501000   -2.916700    0.473800
C     -0.334300   -1.921700    1.554500
C      0.565300   -0.759800    1.185100
O      1.081400   -0.805000   -0.147000
H      1.096900    1.815300    0.208700
H      0.046900    1.720400   -1.213100
H     -0.656200    2.073800    0.372800
H     -2.224500    0.027400   -0.100100
H     -1.408700   -0.951800   -1.330500
H     -2.510500   -2.164100    0.998000
H     -0.844600   -3.783800    0.882000
H     -0.391800   -2.235900    2.590800
H      1.220100   -0.319600    1.933400
