19
gdb_7352
C     -0.065600    1.495900   -0.154600
C      0.023000   -0.012000   -0.022300
O      0.654100   -0.520300   -1.216200
C      0.821900   -1.854700   -1.274800
O      0.465500   -2.616700   -0.409500
C      1.539000   -2.272500   -2.563400
C      3.028900   -1.910500   -2.454100
N      1.388100   -3.690400   -2.866800
H      0.929300    1.938800   -0.254600
H     -0.656800    1.777300   -1.030600
H     -0.543400    1.919100    0.734000
H      0.615200   -0.314300    0.847100
H     -0.963800   -0.474500    0.078600
H      1.103100   -1.691700   -3.383900
H      3.537500   -2.183400   -3.381300
H      3.160500   -0.841900   -2.268700
H      3.497500   -2.463400   -1.632400
H      1.634700   -4.220800   -2.033500
H      0.404900   -3.898200   -3.021200
