13
gdb_23746
N     -0.004900    1.414000    0.147500
C     -0.008100    0.028000    0.047600
C     -1.178900   -0.741800    0.026800
N     -1.206800   -2.073100   -0.009600
C     -0.041900   -2.722600   -0.028900
C      1.191600   -2.072700   -0.018700
C      1.188000   -0.693600    0.018500
F      2.338300   -0.003500    0.018200
H      0.846600    1.852300   -0.171400
H     -0.829800    1.868500   -0.215500
H     -2.141900   -0.233400    0.042700
H     -0.087600   -3.807300   -0.056000
H      2.129100   -2.615000   -0.042400
