19
gdb_18087
O     -0.460500    1.504500   -1.031000
C     -0.470800    0.088700   -1.129600
C     -1.487900   -0.438100   -0.120600
C     -1.537000   -1.948900   -0.098400
C     -2.707900   -2.783900    0.239000
C     -4.028400   -2.185100   -0.240800
C     -3.381500   -2.129700   -1.646400
N     -2.115400   -2.798900   -1.169400
H      0.171200    1.845700   -1.670600
H     -0.746800   -0.243000   -2.142800
H      0.522200   -0.336300   -0.910000
H     -1.204900   -0.079800    0.876500
H     -2.461700    0.006800   -0.341200
H     -0.592900   -2.392600    0.217700
H     -2.624100   -3.644600    0.896500
H     -4.856500   -2.894000   -0.189500
H     -4.344200   -1.247000    0.225500
H     -3.870600   -2.776000   -2.377400
H     -3.231100   -1.144500   -2.098400
