18
gdb_2345
C     -0.269100    1.347600   -0.007000
O     -0.169600   -0.053000   -0.078200
C      0.785000   -0.485800   -1.026000
C      0.802600   -1.990900   -1.014400
N     -0.082400   -2.685300   -1.964200
C      1.376200   -2.828300   -2.103300
C      2.011100   -2.284700   -3.362700
H      0.687300    1.813200    0.283000
H     -0.583100    1.786200   -0.967800
H     -1.020100    1.585500    0.750500
H      0.529400   -0.114900   -2.029700
H      1.783900   -0.091400   -0.765800
H      0.873200   -2.397600   -0.006500
H     -0.491500   -3.510400   -1.535300
H      1.808500   -3.771300   -1.768200
H      1.522600   -1.364700   -3.690200
H      3.075800   -2.078700   -3.206900
H      1.926300   -3.013000   -4.176400
