13
gdb_12959
O     -0.003600    1.392800   -0.035800
C     -0.106800    0.013700   -0.027000
C     -0.506300   -0.770900    1.170100
O     -1.490600    0.019800    1.897000
C     -2.411700   -0.126200    0.842000
N     -3.619700    0.182400    0.772400
C     -1.420800   -0.802200   -0.054600
O     -1.673300   -1.821100   -0.933900
H     -0.431000    1.715700    0.768300
H      0.648400   -0.454800   -0.653600
H      0.019400   -1.538800    1.721700
H     -3.953500    0.616800    1.633900
H     -1.862500   -1.440000   -1.799100
