22
gdb_16528
C      0.262600    1.636600    0.138600
C      0.105200    0.124800    0.012700
C      1.056700   -0.658900   -0.969700
C      1.974300    0.092600   -1.926200
C      1.651600   -1.436900    0.235200
C      2.784800   -0.743000    1.049000
C      1.736900   -0.231900    2.082400
C      0.594400   -0.779500    1.193600
H      1.293700    1.940700    0.342000
H     -0.048400    2.138000   -0.784500
H     -0.360900    2.026300    0.951300
H     -0.943800   -0.084400   -0.220200
H      0.449100   -1.353100   -1.561200
H      2.600900    0.831500   -1.418200
H      2.643000   -0.602600   -2.446700
H      1.395500    0.625200   -2.689100
H      1.756500   -2.516900    0.114700
H      3.525200   -1.432300    1.461900
H      3.327900    0.039100    0.512000
H      1.802000   -0.764500    3.035200
H      1.731700    0.839500    2.300100
H     -0.190300   -1.348800    1.695200
