18
gdb_9663
C     -0.102500    1.497700   -0.203100
C     -0.103600    0.058300    0.326000
C     -1.436800   -0.626800    0.118200
C     -1.781700   -1.284700   -1.182500
C     -1.516300   -2.148600    0.042700
O     -0.316100   -2.856700    0.151100
C     -2.686100   -2.788200    0.704600
O     -3.808300   -2.340700    0.696800
H      0.868100    1.974800   -0.036700
H     -0.312400    1.524000   -1.277400
H     -0.863700    2.105800    0.297500
H      0.682600   -0.526200   -0.161400
H      0.136800    0.059300    1.396200
H     -2.279800   -0.186000    0.644500
H     -2.806400   -1.246800   -1.534900
H     -1.012800   -1.316000   -1.948400
H     -0.280800   -3.508400   -0.556800
H     -2.429500   -3.735700    1.229800
