15
gdb_20235
C     -0.035000    1.599300   -0.013900
O      1.330600    2.057900   -0.040900
C      2.158000    0.913900    0.028400
C      2.084800    0.088500    1.315700
C      0.702700   -0.478700    1.302100
C      0.058800    0.070700    0.026000
C      1.429200   -0.291500   -0.597800
N      1.805800   -1.204600    0.592600
H     -0.545200    2.004200    0.869100
H     -0.549300    1.969300   -0.910000
H      3.156600    1.163500   -0.327500
H      2.707000    0.125400    2.201600
H      0.225000   -0.888000    2.184500
H     -0.813700   -0.474600   -0.331200
H      1.566400   -0.626500   -1.622600
