15
gdb_638
C      0.121700    1.523300   -0.033200
C     -0.046600    0.002900    0.018000
O      0.518900   -0.620100   -1.132900
C      0.639300   -0.593300    1.234500
C      1.093800   -2.001600    1.245200
N      2.076500   -0.898300    1.190900
H      1.182100    1.790500   -0.071100
H     -0.375300    1.942600   -0.916000
H     -0.322400    1.993700    0.849800
H     -1.122100   -0.234600    0.081100
H      0.185300   -0.168000   -1.913000
H      0.310400   -0.146900    2.171200
H      1.088100   -2.565300    2.174000
H      0.935500   -2.586100    0.344700
H      2.379600   -0.803900    0.222900
