17
gdb_14835
C      0.308300    1.328300   -0.109500
O     -0.152600    0.014000    0.166700
C      0.562000   -0.611100    1.189600
C      0.166300   -2.082900    1.405300
O      1.535400   -2.507900    1.125600
C      1.925300   -1.206000    0.842400
N      3.011000   -0.747600    0.426100
C      4.111700   -1.661000    0.146300
H      1.358900    1.326100   -0.421800
H     -0.315900    1.717200   -0.916600
H      0.201700    1.978600    0.772300
H      0.577900    0.000400    2.104300
H     -0.141100   -2.376300    2.411000
H     -0.529700   -2.459300    0.652600
H      3.850800   -2.720300    0.251200
H      4.470500   -1.483000   -0.872900
H      4.944300   -1.436200    0.822200
