19
gdb_19907
C     -0.284800    1.589300   -0.146300
C      0.170300    0.168900    0.213200
C      0.860800   -0.511100   -0.973000
C      2.101800   -1.372400   -1.025900
C      2.165800   -2.511100    0.030400
N      0.982600   -2.424200    0.926400
C      0.867800   -3.041900   -0.420900
C      0.750500   -1.925000   -1.495800
H      0.564000    2.217800   -0.440400
H     -0.993900    1.581400   -0.982400
H     -0.778000    2.073900    0.702300
H      0.846700    0.201200    1.070400
H     -0.687300   -0.425500    0.536600
H      0.889300    0.154900   -1.838200
H      2.960600   -1.111300   -1.632300
H      3.066100   -3.026200    0.338500
H      1.064200   -3.191500    1.594100
H      0.531100   -4.063000   -0.543100
H      0.437600   -2.143100   -2.509700
