14
gdb_20960
C      0.017100    1.475500   -0.053700
C      0.005500   -0.039000   -0.002200
O      0.678500   -0.512900   -1.186000
C      0.768400   -1.827500   -1.319000
N      1.367700   -2.380800   -2.370400
N      1.213300   -3.668800   -2.070400
N      0.579700   -3.916200   -0.942600
N      0.282300   -2.740200   -0.438600
H      1.042000    1.855900   -0.073300
H     -0.503200    1.838100   -0.944400
H     -0.485900    1.878000    0.830200
H      0.525900   -0.422300    0.882100
H     -1.013700   -0.440000    0.013900
H      1.557500   -4.406900   -2.665700
