16
gdb_13569
O     -0.489100    1.240600    0.132900
C     -0.108600   -0.112300    0.013600
C      0.859600   -0.249200   -1.147300
O      1.236100    0.715400   -1.768800
C      0.551400   -0.658600    1.277900
C      1.503700    0.221400    2.074300
C      0.155200   -0.138200    2.642700
O     -0.857100    0.793100    2.829000
H      0.033000    1.719600   -0.533100
H     -0.997900   -0.723700   -0.214200
H      1.219400   -1.271600   -1.375800
H      0.785400   -1.718300    1.207400
H      2.401700   -0.220000    2.492800
H      1.619000    1.242300    1.724900
H      0.137200   -0.868300    3.446200
H     -0.898800    1.339700    2.031500
