17
gdb_15580
C     -0.265000    1.550300   -0.064300
C      0.018700    0.052400   -0.017800
C      0.942000   -0.489900   -1.122400
C      1.430300   -1.825000   -0.540400
O      1.246200   -1.749900    0.887300
C      0.753400   -0.471800    1.238700
C      1.861900    0.419700    1.656600
N      2.729900    1.113800    1.974000
H      0.660000    2.132700   -0.016600
H     -0.782800    1.810400   -0.992300
H     -0.902700    1.861800    0.769300
H     -0.928800   -0.499100   -0.050000
H      0.428200   -0.612500   -2.078500
H      1.779700    0.198500   -1.276700
H      0.841900   -2.675200   -0.903900
H      2.485700   -2.019800   -0.757200
H      0.080700   -0.590400    2.094600
