15
gdb_5765
C      0.294100    1.624600    0.101900
C      1.138400    0.488700   -0.332900
N     -0.252600    0.260000    0.124200
C     -0.394700   -0.320000    1.394800
N      0.142900    0.043800    2.537700
C     -0.326300   -0.862100    3.464400
C     -1.151800   -1.778400    2.871700
N     -1.187600   -1.416800    1.540100
H      0.519400    2.069400    1.065600
H     -0.162700    2.278400   -0.635100
H      1.306800    0.296200   -1.388100
H      1.927900    0.172300    0.342100
H     -0.043200   -0.798500    4.504100
H     -1.703200   -2.621600    3.251900
H     -1.709200   -1.849900    0.796800
