19
gdb_8111
C     -0.061600    1.770400    0.801300
C      0.084700    0.269100    0.664700
C      1.207500   -0.518100   -0.009500
N      2.561600   -0.024100    0.202100
C      3.066900    1.139500   -0.499000
C      2.378600   -0.016300    1.675100
C      0.978900   -0.625400    1.486500
O      0.528600   -1.724400    2.196400
H     -0.346000    2.231000   -0.151000
H     -0.841800    2.015500    1.531700
H      0.859300    2.250700    1.138200
H     -0.859200   -0.243800    0.475900
H      0.999700   -1.229600   -0.802900
H      2.518400    2.077500   -0.312600
H      4.114600    1.301700   -0.221900
H      3.038200    0.944700   -1.576400
H      3.072700   -0.695000    2.182700
H      2.425100    0.970500    2.156600
H     -0.039800   -1.411900    2.908300
