14
gdb_16125
N      0.011200   -1.154900    0.193400
C      0.046200   -0.004800    0.080300
C      0.053600    1.423800   -0.106700
C     -0.944100    2.106700   -1.049200
N     -0.208300    3.196500   -1.718900
C      1.041800    3.456800   -0.970200
C      1.266000    2.264500   -0.049200
O      0.345100    2.228400    1.046100
H     -1.361000    1.409200   -1.779500
H     -1.768200    2.503500   -0.445400
H      0.037900    2.888200   -2.651500
H      1.880100    3.599700   -1.657600
H      0.947100    4.363300   -0.360300
H      2.254700    1.863600    0.156600
