15
gdb_4183
O     -0.196100    1.289200   -0.255200
N     -0.051400   -0.104600   -0.187300
C     -1.158800   -0.667400    0.055800
C     -2.575800   -0.224800    0.388500
C     -2.928500   -1.719200    0.661800
C     -3.346900   -2.513400   -0.584600
O     -1.969600   -2.766800   -0.953900
C     -1.474600   -2.134400    0.250000
H      0.705300    1.580500   -0.431500
H     -2.618300    0.422200    1.269900
H     -3.132800    0.261500   -0.418300
H     -3.387700   -1.963700    1.617000
H     -3.876100   -3.451400   -0.375000
H     -3.892500   -1.958600   -1.357900
H     -0.779500   -2.767800    0.805300
