19
gdb_16175
C      0.253200    1.481300    0.240700
C     -0.178400    0.056300   -0.129800
C      0.541500   -0.478100   -1.344100
C      0.266600    0.113700   -2.722500
O      0.839300   -0.796800   -3.657400
C      0.747300   -2.107600   -3.102100
C      0.863500   -1.907100   -1.603800
N      1.912200   -0.981300   -1.151300
H      1.332400    1.518200    0.417600
H      0.016700    2.196200   -0.554800
H     -0.252400    1.820300    1.149700
H      0.021900   -0.614600    0.711800
H     -1.261000    0.026500   -0.310600
H     -0.821400    0.215500   -2.872500
H      0.730600    1.090500   -2.896100
H     -0.216100   -2.585200   -3.345700
H      1.551300   -2.706000   -3.544000
H      0.599900   -2.714300   -0.927600
H      2.497700   -0.718000   -1.943400
