16
gdb_16111
C     -0.039800   -1.174300    0.374700
C      0.020700    0.002700    0.137500
C      0.051500    1.399600   -0.187800
C     -0.822400    1.952800   -1.306900
C     -0.297500    3.392600   -1.517500
C      1.192400    3.357700   -1.097500
C      1.248400    2.259300   -0.056400
O      0.198300    2.326700    0.912500
H     -0.084500   -2.212000    0.595800
H     -0.676800    1.332300   -2.198600
H     -1.885500    1.920500   -1.052800
H     -0.433200    3.736600   -2.545300
H     -0.842500    4.077800   -0.865500
H      1.844100    3.081100   -1.935400
H      1.543400    4.319800   -0.711800
H      2.195500    1.870800    0.309600
