16
gdb_6336
C     -0.188400    1.507400   -0.042800
C      0.171700    0.030500    0.029300
O      1.299800   -0.378500    0.106600
N     -0.960400   -0.802900   -0.003200
C     -1.007600   -2.200800    0.046400
O     -0.042000   -2.915300    0.126400
C     -2.445700   -2.751800   -0.012700
N     -2.545100   -4.196600    0.034300
H      0.731400    2.090200   -0.022500
H     -0.740100    1.732200   -0.962100
H     -0.819400    1.797300    0.804500
H     -1.852800   -0.335000   -0.069700
H     -3.017900   -2.318900    0.819300
H     -2.922000   -2.382300   -0.931100
H     -1.995100   -4.585900   -0.727000
H     -2.080500   -4.527900    0.875800
