20
gdb_8427
C      0.437400    1.282000    0.031200
C     -0.132000   -0.148000   -0.003400
C     -1.664000   -0.083200   -0.073500
C      0.457000   -0.939500   -1.217600
C      1.619400   -1.736600   -0.666600
O      2.543700   -0.963800    0.114800
C      1.552000   -1.745200    0.799000
C      0.343400   -0.954100    1.250300
H      1.527700    1.265200    0.081200
H      0.140100    1.839500   -0.864500
H      0.058900    1.829100    0.902300
H     -1.994700    0.452800   -0.970300
H     -2.107000   -1.084900   -0.099800
H     -2.075800    0.442400    0.795400
H     -0.282800   -1.640200   -1.625400
H      0.754400   -0.272500   -2.033800
H      2.066200   -2.542400   -1.244600
H      1.944300   -2.557900    1.406100
H      0.564200   -0.296900    2.098100
H     -0.430200   -1.659100    1.580100
