22
gdb_15906
C     -0.010200    1.696700    0.115500
C      0.025000    0.165700    0.191600
C     -1.353400   -0.477600    0.048800
C     -1.959600   -0.678000   -1.374700
C     -1.298700   -0.122700   -2.621300
O     -1.797900   -2.111700   -1.275700
C     -1.446000   -2.029000    0.123800
C     -0.232300   -2.871900    0.463500
H      0.989300    2.121200    0.251700
H     -0.388800    2.045600   -0.850100
H     -0.658500    2.113400    0.894400
H      0.714000   -0.225300   -0.565200
H      0.445900   -0.132400    1.160500
H     -2.044700    0.021200    0.735400
H     -3.029800   -0.419900   -1.390900
H     -0.220100   -0.300200   -2.625500
H     -1.722700   -0.618600   -3.500600
H     -1.481900    0.952100   -2.720100
H     -2.294800   -2.351600    0.746500
H      0.641600   -2.577200   -0.123000
H      0.013100   -2.789900    1.527900
H     -0.446200   -3.923500    0.247000
