17
gdb_7992
C     -0.159800    1.549600    0.052000
C      0.151800    0.067000   -0.012500
C      0.987400   -0.380800   -1.228800
N      1.848100   -1.371700   -0.623800
C      2.894400   -2.052700   -1.349200
C      1.912400   -1.209200    0.741800
O      2.663500   -1.745300    1.511600
O      0.952700   -0.313700    1.122600
H      0.762600    2.137600    0.036600
H     -0.776500    1.843300   -0.803800
H     -0.706900    1.787300    0.967700
H     -0.775800   -0.517800    0.034100
H      0.364700   -0.804200   -2.024000
H      1.565500    0.454000   -1.658300
H      3.572900   -1.343500   -1.844800
H      3.464600   -2.644500   -0.631800
H      2.471000   -2.715900   -2.111300
