19
gdb_13702
C     -0.012700    1.650000    0.041000
C     -0.003100    0.110100    0.018700
C      0.673800   -0.436700   -1.152800
C      1.248800   -0.861400   -2.124500
C      1.890900   -1.355700   -3.312700
C      3.234200   -2.021700   -3.227200
N      2.059100   -2.799900   -3.573300
C      1.568900   -3.739400   -2.573600
H      1.006800    2.044800    0.045800
H     -0.524000    2.047900   -0.839700
H     -0.529000    2.014400    0.934000
H      0.482700   -0.265300    0.928600
H     -1.035500   -0.261800    0.053100
H      1.664900   -0.791700   -4.215300
H      3.963600   -1.872800   -4.019500
H      3.652100   -2.135400   -2.228100
H      1.676900   -3.385300   -1.537800
H      0.508900   -3.939200   -2.757600
H      2.119900   -4.678500   -2.683800
