20
gdb_6931
C      0.023000    1.562600   -0.170900
C      0.012900    0.062500    0.017600
O     -1.147500   -0.558200   -0.485000
C      1.293600   -0.738200   -0.051400
C      0.530500   -0.602300    1.259700
C      1.108400    0.147900    2.439400
C      2.015600   -0.733300    3.292000
O      2.512700    0.059200    4.360300
H      0.920200    2.023100    0.249500
H     -0.003800    1.812900   -1.238900
H     -0.854400    2.015000    0.302300
H     -1.141900   -0.454700   -1.443500
H      1.259300   -1.693700   -0.562900
H      2.231400   -0.198800   -0.149800
H     -0.049900   -1.482200    1.526800
H      1.692400    1.012600    2.106100
H      0.306100    0.538500    3.077500
H      1.445100   -1.598400    3.668200
H      2.834600   -1.129900    2.670700
H      3.080200   -0.493200    4.905500
