20
gdb_18476
C     -0.275600    1.442900    0.177400
C      0.219400    0.025800   -0.134000
C      0.832800   -0.646600    1.081100
C      0.076300   -1.274000    2.218400
C     -1.163000   -2.026500    1.720100
C     -0.215900   -2.946100    0.871000
O     -0.394300   -3.040700   -0.528600
C      0.989900   -2.128100    1.312600
H      0.537200    2.076200    0.551400
H     -0.688400    1.925200   -0.714400
H     -1.057700    1.428500    0.944500
H     -0.592700   -0.582400   -0.537400
H      0.977100    0.065200   -0.926900
H      1.711200   -0.114400    1.448000
H      0.246400   -0.990500    3.249800
H     -1.690100   -2.576900    2.502900
H     -1.890400   -1.437400    1.153400
H     -0.174100   -3.948100    1.319400
H     -1.153000   -3.609000   -0.696400
H      1.959600   -2.558500    1.534900
