15
gdb_8931
O     -0.099100    1.404500   -0.217500
C      0.025200    0.013600    0.060100
C     -1.399600   -0.534300    0.006300
O     -1.998200   -0.231900   -1.232400
C     -1.414600   -2.066900    0.149500
O     -0.750300   -2.507000    1.319700
C     -2.795500   -2.583800    0.094000
N     -3.872600   -3.000500    0.118200
H      0.774900    1.766700   -0.386600
H      0.636100   -0.492000   -0.702600
H      0.471700   -0.170200    1.044700
H     -1.973100   -0.095200    0.841100
H     -1.764400    0.686500   -1.419500
H     -0.859800   -2.490100   -0.695000
H     -1.304900   -2.299900    2.080900
