9
gdb_21986
O     -0.106400    0.004800    0.003500
N     -0.033300    1.219600    0.007000
O      0.976400    1.901100    0.002900
C     -1.311100    1.945400    0.017400
N     -1.337500    3.250200    0.020800
O     -2.699000    3.511100    0.030500
C     -3.319600    2.323100    0.031600
N     -2.514500    1.308900    0.023700
H     -4.399400    2.328000    0.038700
