17
gdb_7649
C     -0.434300    1.441000   -0.068800
C      0.038300   -0.004500   -0.008400
C      1.267500   -0.338800   -0.898100
C      2.106200   -0.367400    0.414000
N      0.846400   -0.353800    1.201100
H      0.807100    0.324100    1.956000
H      1.457900   -2.132700    1.626400
C      2.945100   -1.623000    0.642900
O      4.042300   -1.777700    0.177400
O      2.316600   -2.546500    1.384700
H      0.405600    2.139400    0.020500
H     -0.939900    1.640200   -1.019500
H     -1.145200    1.655000    0.737200
H     -0.817400   -0.677300   -0.130700
H      1.209600   -1.307200   -1.397300
H      1.553200    0.421800   -1.625100
H      2.751100    0.507800    0.533000
