20
gdb_15801
C     -0.026300    1.574800   -0.033300
C      0.007100    0.045400    0.012800
C      0.693300   -0.567900   -1.206600
C      0.744200   -2.088200   -1.194700
O      0.274400   -2.744300   -0.286600
C      1.406600   -2.735900   -2.366000
C      2.165300   -4.030900   -2.111400
C      0.858300   -4.080400   -2.823200
H      0.984800    1.996100   -0.071900
H     -0.566900    1.936900   -0.915300
H     -0.522700    1.985800    0.851200
H      0.520900   -0.295000    0.918100
H     -1.010300   -0.353500    0.085700
H      0.195900   -0.257700   -2.137900
H      1.725600   -0.199800   -1.306200
H      1.796700   -2.070800   -3.128500
H      3.078300   -4.188000   -2.674100
H      2.184000   -4.364000   -1.080100
H      0.002300   -4.446700   -2.268200
H      0.845900   -4.272600   -3.889800
