17
gdb_9366
N     -0.141000    1.265000   -0.274200
C      0.074800   -0.145600   -0.011800
C      0.933400   -0.454800    1.212400
O      1.452000    0.370500    1.919600
O      1.040300   -1.786100    1.405100
C      1.853100   -2.208700    2.521500
C      1.781900   -3.724300    2.550900
O      2.306600   -4.307600    1.375300
H     -0.592000    1.688000    0.532400
H      0.760200    1.730500   -0.339500
H     -0.887500   -0.656100    0.110600
H      0.550100   -0.617700   -0.880400
H      2.879200   -1.862500    2.366000
H      1.469400   -1.763300    3.444600
H      2.387000   -4.092500    3.385800
H      0.740600   -4.036000    2.729200
H      1.814700   -3.931100    0.637300
