18
gdb_7173
O     -0.112000    1.479200    0.058200
C      0.021300    0.065100    0.047700
C     -1.379600   -0.529700   -0.019100
C     -1.376700   -2.061700   -0.008700
O     -0.715600   -2.583800    1.135300
C     -2.811700   -2.620100   -0.142400
C     -2.867400   -4.074400   -0.202600
C     -2.908900   -5.273600   -0.264700
H      0.765800    1.861100    0.147400
H      0.607800   -0.274800   -0.821900
H      0.531200   -0.302800    0.948600
H     -1.962600   -0.154700    0.833700
H     -1.878600   -0.163700   -0.924200
H     -0.786400   -2.431700   -0.855500
H     -1.231500   -2.342500    1.913200
H     -3.409700   -2.258500    0.707000
H     -3.276400   -2.193400   -1.040300
H     -2.943600   -6.333500   -0.314600
