16
gdb_12322
N      0.023400    1.330600    0.072200
C     -0.060400   -0.032600    0.026900
N     -1.185300   -0.645200    0.006000
C     -1.214000   -2.099400    0.012000
C      0.047500   -2.780300   -0.528600
C      1.284100   -2.209300    0.174000
C      1.305100   -0.705100    0.042600
O      2.317200   -0.043800   -0.042500
H      0.922800    1.727800   -0.146800
H     -0.805000    1.853400   -0.158500
H     -1.402400   -2.438900    1.043600
H     -2.089200   -2.417500   -0.566000
H     -0.011400   -3.865100   -0.390900
H      0.123500   -2.596900   -1.607900
H      1.235500   -2.438500    1.249500
H      2.229300   -2.610900   -0.200300
