20
gdb_14438
C     -0.051400    1.515800    0.028200
C      0.018800    0.015900   -0.010600
C      0.834700   -0.796800   -1.021800
C     -0.159900   -1.986400   -0.822700
C      0.365500   -2.970700    0.231400
C      0.560900   -2.084900    1.493700
C     -0.291600   -0.847200    1.207200
C     -1.099800   -1.016800   -0.053000
H      0.892300    1.951500    0.379400
H     -0.255700    1.929900   -0.966500
H     -0.843700    1.860600    0.701400
H      0.753200   -0.365100   -2.024100
H      1.894400   -0.984400   -0.806400
H     -0.533500   -2.451200   -1.735400
H     -0.381600   -3.749500    0.423400
H      1.288300   -3.468800   -0.084400
H      0.223300   -2.593600    2.402000
H      1.614200   -1.826400    1.649600
H     -0.741100   -0.311200    2.037000
H     -2.172100   -0.898900   -0.145000
