16
gdb_4506
C      0.009000    1.453500    0.004600
C      0.027400   -0.037700   -0.031400
N      0.027500   -0.784500   -1.121900
C      0.048000   -2.077200   -0.678600
O      0.053800   -3.120700   -1.544700
C      0.061000   -2.156000    0.689200
C      0.084100   -3.308200    1.630800
N      0.047400   -0.818300    1.082800
H      0.895700    1.863300    0.502800
H     -0.011000    1.827300   -1.019900
H     -0.872400    1.840800    0.529400
H      0.040600   -2.732400   -2.427300
H      0.975700   -3.312100    2.271500
H     -0.793300   -3.331700    2.290600
H      0.088100   -4.236900    1.055700
H      0.051600   -0.491700    2.034500
