18
gdb_6299
C     -0.127100    1.653400    0.025200
C     -0.039100    0.113600    0.033000
C      0.779000   -0.409400    1.231500
C      2.276300   -0.143400    1.118800
C      3.097800   -0.428800    2.362700
O      2.783300    0.257600    0.095600
C     -1.370000   -0.490500    0.024500
C     -2.468300   -0.979800    0.039400
H      0.875300    2.084000   -0.024000
H     -0.696900    2.000800   -0.840100
H     -0.630000    2.016300    0.927300
H      0.494100   -0.194200   -0.874600
H      0.401500    0.008600    2.173400
H      0.654100   -1.496400    1.327200
H      2.874400   -1.424400    2.760800
H      4.160800   -0.346600    2.133400
H      2.839600    0.291600    3.147800
H     -3.437000   -1.414400    0.034500
