18
gdb_14262
C     -0.029700    1.532300   -0.016300
C      1.531800    1.528100    0.007700
C      1.420300    0.101400    0.632900
C     -0.007800   -0.028900    0.014500
C     -0.012800   -0.654900   -1.353700
C      0.785100   -0.311300   -2.378500
C      1.812600    0.727900   -2.383100
C      2.151700    1.534300   -1.363300
H     -0.426900    1.929100    0.920900
H     -0.521400    2.014800   -0.862800
H      1.999900    2.287900    0.636600
H      2.167500   -0.638600    0.341200
H      1.362600    0.163200    1.722200
H     -0.759400   -0.502800    0.648800
H     -0.730000   -1.455300   -1.515900
H      0.668200   -0.854000   -3.313400
H      2.349900    0.846900   -3.320900
H      2.943200    2.259800   -1.532100
