14
gdb_4065
O     -0.156000    1.335200    0.273100
N      0.019700   -0.053000    0.192400
C     -1.067000   -0.629900   -0.086100
C     -2.505500   -0.208200   -0.348500
N     -2.794400   -1.646300   -0.496000
C     -1.408500   -2.096400   -0.280400
C     -3.819900   -2.320400   -1.065900
O     -3.798100   -3.505200   -1.324600
H      0.730900    1.644600    0.488100
H     -3.009200    0.281600    0.492600
H     -2.652800    0.390700   -1.255100
H     -0.962200   -2.581900   -1.155500
H     -1.275400   -2.742500    0.593600
H     -4.693200   -1.663600   -1.256200
