16
gdb_16879
O     -0.022800    0.667600   -1.347400
C     -0.027800    1.283700   -0.309900
C     -1.333000    1.810100    0.297500
O     -1.149900    2.376400    1.584800
C     -0.222300    3.425400    1.554900
C      0.931200    3.314300    2.501500
C      1.138500    3.042800    1.025500
C      1.222400    1.613000    0.498200
H     -1.781800    2.528000   -0.407100
H     -2.032100    0.976000    0.407200
H     -0.648000    4.402300    1.327500
H      1.340300    4.228500    2.916300
H      0.928100    2.464300    3.175300
H      1.682700    3.786300    0.453000
H      1.275500    0.896800    1.327800
H      2.099000    1.447500   -0.130900
