18
gdb_15637
C      0.067000    1.599400    0.127500
C      0.024500    0.072600    0.032900
C     -1.403600   -0.501100   -0.060800
C     -2.143300   -0.260100   -1.352900
C     -2.570300   -1.385800   -1.928500
C     -2.210300   -2.613100   -1.136500
C     -1.406200   -2.040700    0.041300
O     -0.847500   -2.680900    0.893500
H      1.097700    1.956200    0.216900
H     -0.369500    2.074000   -0.757600
H     -0.486500    1.956800    1.003000
H      0.601500   -0.263000   -0.837800
H      0.498800   -0.374100    0.913500
H     -1.973500   -0.112600    0.798400
H     -2.304500    0.734500   -1.753200
H     -3.123700   -1.435300   -2.859300
H     -3.082900   -3.163600   -0.759700
H     -1.606700   -3.344700   -1.688200
