16
gdb_18744
C     -0.285300    1.484500   -0.042500
N      0.105300    0.089300   -0.004800
C      1.194700   -0.415100   -0.867300
C      1.794600   -1.173900    0.346800
N      2.786300   -0.412100    1.104400
C      1.860500    0.322000    1.832900
O      1.973100    1.267700    2.565100
C      0.689100   -0.497700    1.215000
H      0.542200    2.187800    0.149600
H     -0.712100    1.712400   -1.024900
H     -1.059100    1.663900    0.710800
H      0.828000   -1.038200   -1.690800
H      1.872800    0.349600   -1.273000
H      1.964800   -2.247100    0.283400
H      3.714700   -0.127300    0.817600
H     -0.008000   -0.996200    1.891100
