22
gdb_9847
C     -0.056500    1.608100   -0.157600
C     -0.117400    0.078400   -0.161900
C      0.848900   -0.554100   -1.174000
O      2.202400   -0.191500   -0.896400
C      0.684600   -2.065800   -1.313000
C      0.959700   -2.890800   -0.068900
C     -0.387300   -2.546500   -2.262800
C      1.069700   -2.661300   -2.644000
H      0.963100    1.952200    0.035000
H     -0.365100    2.015800   -1.126800
H     -0.714900    2.030800    0.607300
H      0.115100   -0.302300    0.842500
H     -1.135000   -0.262200   -0.388600
H      0.652200   -0.108400   -2.158000
H      2.406000   -0.484100   -0.001500
H      0.266100   -2.655200    0.745800
H      0.861600   -3.959200   -0.283200
H      1.981200   -2.731500    0.297900
H     -0.926100   -3.453500   -2.009000
H     -0.991900   -1.805000   -2.775800
H      1.455100   -1.994400   -3.407800
H      1.519500   -3.648700   -2.651300
