15
gdb_4751
C      0.003500    1.453400    0.008800
N     -0.035700    0.005400   -0.001900
C     -0.004100   -0.783500   -1.129000
C      0.038900   -2.097100   -0.738900
C      0.036600   -2.117000    0.693000
C     -0.006100   -0.793900    1.105200
C      0.060400   -3.255700    1.530700
C      0.082500   -4.234600    2.233400
H      1.032200    1.831300   -0.005200
H     -0.524100    1.841100   -0.865700
H     -0.495000    1.827100    0.906000
H     -0.016300   -0.335300   -2.109900
H      0.053700   -2.960800   -1.384200
H     -0.018200   -0.374900    2.098400
H      0.101300   -5.094700    2.854500
