14
gdb_13648
C     -0.141600    1.487100   -0.154600
C     -0.020300    0.001200    0.045400
O      1.267300   -0.583300   -0.126300
C      0.694800   -0.608900    1.194400
C      1.331200    0.177600    2.210800
C      1.854800    0.810100    3.101200
C      2.444400    1.526900    4.094400
C      2.967300    2.163100    4.977800
H      0.669200    2.016900    0.349700
H     -0.106000    1.726700   -1.222100
H     -1.097400    1.846500    0.240700
H     -0.831300   -0.598100   -0.374000
H      0.377800   -1.600700    1.517500
H      3.428300    2.722900    5.753400
