16
gdb_5066
C      0.081500    1.482800    0.069600
C     -0.056200    0.003900    0.034000
C     -1.131600   -0.832200   -0.038900
N     -2.515000   -0.552500   -0.057000
C     -0.613700   -2.175700   -0.010300
N     -1.432200   -3.310200   -0.130900
C      0.737900   -2.053800    0.077100
O      1.093100   -0.731700    0.110200
H      0.866300    1.819900   -0.616200
H     -0.855600    1.958500   -0.236200
H      0.334800    1.860600    1.068500
H     -2.705500    0.442200   -0.054500
H     -2.964200   -0.961200   -0.871200
H     -2.274200   -3.207700    0.426300
H     -0.960500   -4.164800    0.136600
H      1.546200   -2.764200    0.116900
