14
gdb_13740
C     -0.060800    1.335000   -0.073600
C     -0.070800   -0.178000   -0.022500
O      0.845700   -0.882600   -0.362900
N     -1.238200   -0.717700    0.549800
C     -2.597400   -0.552900    0.101600
C     -1.916600   -1.906600    0.089100
C     -1.592100   -2.499500   -1.189600
N     -1.383100   -3.000100   -2.209900
H      0.955500    1.675900   -0.268700
H     -0.712200    1.686900   -0.881500
H     -0.432600    1.762900    0.861100
H     -3.341400   -0.343700    0.865400
H     -2.773800   -0.090500   -0.866700
H     -2.166500   -2.629900    0.860500
