19
gdb_8431
C      0.571300    1.292700    0.015900
C     -0.093800   -0.084800   -0.018500
O     -1.516500    0.062800   -0.022200
C      0.395500   -0.938600   -1.234400
C      1.440700   -1.885500   -0.682500
N      2.487800   -1.208600    0.117600
C      1.357800   -1.883800    0.798500
C      0.259400   -0.937300    1.233300
H      1.657000    1.187900    0.067200
H      0.324900    1.863200   -0.889400
H      0.221400    1.859400    0.884700
H     -1.740200    0.729700   -0.680000
H     -0.455600   -1.516200   -1.610100
H      0.773400   -0.314500   -2.051600
H      1.710800   -2.776200   -1.241000
H      3.307800   -1.808300    0.163700
H      1.564500   -2.773300    1.384900
H      0.543200   -0.310600    2.084200
H     -0.628700   -1.510500    1.518300
