15
gdb_20118
O     -0.098400    0.279500    0.715100
C     -0.105900    1.362500    0.178200
C      1.077200    2.298000    0.195700
C      1.922800    2.340800    1.405600
O      2.356000    1.671400    0.234600
N     -1.179700    1.844500   -0.568400
C     -1.975900    3.007700   -0.201100
C     -2.549800    1.621300   -0.177000
H      1.011500    3.176000   -0.443800
H      2.448200    3.262900    1.650400
H      1.661100    1.691200    2.238200
H     -1.771500    3.481200    0.756200
H     -2.224700    3.689300   -1.009500
H     -3.222800    1.307800   -0.969200
H     -2.712800    1.149000    0.787900
