18
gdb_7107
C     -0.156500    1.576300   -0.183500
C      0.143400    0.095800    0.062900
C      0.693900   -0.607500   -1.176900
C      0.997300   -2.079400   -0.973800
O      0.811300   -2.656600    0.072900
C      1.538500   -2.842100   -2.187800
C      0.651200   -4.037600   -2.505300
O      0.268800   -4.314700   -3.610600
H      0.744700    2.122800   -0.483600
H     -0.900600    1.706600   -0.977200
H     -0.548000    2.053400    0.719800
H      0.861700   -0.013700    0.882500
H     -0.762200   -0.424100    0.392900
H     -0.004700   -0.529400   -2.023900
H      1.615300   -0.123500   -1.534400
H      1.653900   -2.222700   -3.079100
H      2.519800   -3.240800   -1.897200
H      0.378200   -4.640100   -1.614300
