13
gdb_11090
C     -0.434100   -1.116100   -0.511800
C     -0.109700    0.000700   -0.209400
C      0.262700    1.351500    0.161600
C     -0.133900    1.839300    1.582000
C      1.390500    2.018800    1.791600
O      1.680000    1.493700    0.482700
C      1.854600    3.399400    1.961600
N      2.206800    4.490400    2.106900
H     -0.716100   -2.103100   -0.785900
H     -0.012700    2.052700   -0.634900
H     -0.728000    2.751000    1.615200
H     -0.579600    1.072700    2.213400
H      1.831500    1.399200    2.580200
