12
gdb_972
C      0.143300    1.529100    0.075300
C     -0.033800    0.059300    0.031900
C     -1.082900   -0.777600   -0.180900
O     -2.365900   -0.443200   -0.431200
N     -0.676600   -2.095300   -0.109900
C      0.592500   -2.011800    0.141100
O      1.063200   -0.758600    0.242500
H      0.850800    1.879800   -0.685200
H     -0.821200    2.007000   -0.111500
H      0.509700    1.870200    1.050600
H     -2.852400   -1.269600   -0.534000
H      1.298100   -2.816300    0.274800
