19
gdb_13535
C      2.421000    0.831300    0.793600
C      1.398400   -0.303800    0.622500
C      0.058100    0.126400    1.028700
C     -1.033700    0.488500    1.376800
N      1.385700   -0.712700   -0.787900
C      2.337100   -1.746800   -1.190600
C      0.873300   -2.032500   -1.167800
C      0.275800   -3.016000   -0.184200
H      3.417700    0.478400    0.512800
H      2.154300    1.673000    0.150600
H      2.447900    1.170300    1.832300
H      1.701400   -1.131400    1.286900
H     -2.000300    0.805800    1.681100
H      2.869400   -1.570600   -2.121700
H      2.936400   -2.217500   -0.410300
H      0.344900   -1.999500   -2.119700
H      0.877100   -3.123400    0.722100
H     -0.732300   -2.710400    0.112500
H      0.205600   -4.004500   -0.650300
