16
gdb_5228
C      0.093300    1.449000    0.123100
C     -0.076500   -0.021900   -0.237900
N     -1.386800   -0.508500    0.211100
C     -1.687900   -1.846000    0.069800
C     -2.801000   -2.553900   -0.270100
N     -2.532800   -3.913100   -0.120500
C     -1.309000   -3.961300    0.272600
O     -0.715800   -2.737400    0.420000
H      1.077400    1.807400   -0.191300
H     -0.659300    2.070400   -0.376200
H     -0.005400    1.597600    1.202000
H      0.060900   -0.166600   -1.321700
H      0.685900   -0.623900    0.263100
H     -2.149500    0.073000   -0.110600
H     -3.759800   -2.191500   -0.602500
H     -0.692400   -4.819300    0.484700
