20
gdb_10347
C     -0.037000    1.524200    0.155700
C      0.010200   -0.001400   -0.000600
N      0.651400   -0.447800   -1.230500
C      2.090300   -0.705300   -1.208200
C      2.446000   -2.126600   -0.763400
C     -0.034600   -0.791700   -2.371200
N     -1.406300   -0.530000   -2.359700
O      0.501200   -1.330200   -3.327600
H      0.970100    1.951800    0.134700
H     -0.609100    1.993200   -0.652200
H     -0.503900    1.800100    1.106800
H      0.559100   -0.435600    0.842900
H     -0.998000   -0.423000    0.047400
H      2.472300   -0.531000   -2.215500
H      2.551200    0.033100   -0.542200
H      2.056000   -2.346300    0.236300
H      2.027700   -2.849400   -1.467800
H      3.532800   -2.257300   -0.735900
H     -1.726500    0.305200   -1.893600
H     -1.796200   -0.645500   -3.283600
