19
gdb_9905
C     -0.227900    1.306900   -0.017400
O      0.248000   -0.024900    0.108700
C      0.602400   -0.626200   -1.050500
N      1.034800   -1.807400   -1.032900
C      1.418900   -2.476000   -2.234500
C      1.309800   -1.762300   -3.568700
C      2.562800   -3.454700   -2.042000
C      1.159400   -3.971000   -2.203400
H      0.534700    1.970900   -0.444200
H     -1.133300    1.356900   -0.635700
H     -0.468100    1.645100    0.991400
H      0.472600    0.004500   -1.939100
H      1.931800   -0.859500   -3.596500
H      1.643600   -2.417200   -4.377800
H      0.276000   -1.468600   -3.786900
H      3.260100   -3.581400   -2.863200
H      3.003900   -3.492600   -1.053800
H      0.658800   -4.355300   -1.323400
H      0.888100   -4.454100   -3.136000
