18
gdb_5961
C      0.138000    1.587500    0.023800
C     -0.001000    0.058200    0.001700
O      0.676200   -0.400400    1.180500
C     -1.477500   -0.407500    0.008700
C     -2.271400    0.035000    1.233600
O     -3.525600   -0.632500    1.175800
C      0.657800   -0.489200   -1.195700
C      1.187900   -0.970400   -2.161600
H      1.191800    1.863200   -0.050200
H     -0.404900    2.036000   -0.811600
H     -0.256600    1.983800    0.962400
H      0.769200   -1.356800    1.108700
H     -1.973800   -0.056900   -0.902400
H     -1.496600   -1.503000   -0.028500
H     -1.713100   -0.227900    2.142800
H     -2.409300    1.126800    1.231400
H     -4.035700   -0.373600    1.948600
H      1.663300   -1.386300   -3.015600
