22
gdb_6027
C      0.026800    1.514400   -0.048900
C     -0.056900   -0.020900   -0.014600
C      0.889300   -0.571800    1.063500
C     -1.515700   -0.544600    0.113400
C     -1.561500   -2.090500    0.216300
C     -2.291100    0.050900    1.305900
C     -2.306500   -0.234800   -1.156800
O     -1.854600    0.149800   -2.204000
H      1.046100    1.826100   -0.298500
H     -0.641200    1.940600   -0.800500
H     -0.216000    1.955700    0.924000
H      0.296600   -0.381500   -0.988200
H      0.570800   -0.284400    2.072100
H      0.970000   -1.661500    1.034300
H      1.895600   -0.166600    0.916300
H     -1.208900   -2.424400    1.195700
H     -2.585900   -2.460900    0.095500
H     -0.941200   -2.558200   -0.554500
H     -2.366100    1.139900    1.247900
H     -3.309400   -0.351600    1.343800
H     -1.803800   -0.205400    2.251100
H     -3.400200   -0.439000   -1.053000
