14
gdb_1882
O     -0.451300    1.400200    0.344200
C     -0.008900    0.090500    0.029500
C      0.685900   -0.593500    1.219900
O     -0.363500   -1.144100    2.022200
C     -1.509400   -1.280900    1.281400
N     -2.590800   -1.761600    1.715700
C     -1.255600   -0.779800   -0.124400
H      0.318900    1.948900    0.524200
H      0.630400    0.088800   -0.863200
H      1.354500   -1.398000    0.885500
H      1.257300    0.107300    1.835900
H     -2.491800   -2.041300    2.693100
H     -2.106600   -0.225100   -0.517700
H     -1.059900   -1.631300   -0.784600
