12
gdb_4749
O      0.111200    1.350800   -0.101000
C      0.069600    0.007100   -0.068200
C     -0.009800   -0.831700   -1.170000
N     -0.024300   -2.089200   -0.633200
C      0.043700   -1.973100    0.727600
C      0.046200   -3.154800    1.582100
O      0.103300   -3.153500    2.788400
N      0.102000   -0.690900    1.084200
H      0.164400    1.646900    0.816700
H     -0.054000   -0.639600   -2.227500
H     -0.076400   -2.952200   -1.150600
H     -0.012100   -4.107600    1.002200
