16
gdb_20730
C     -0.056900    1.467500   -0.028900
C     -0.039800   -0.026000    0.039300
N     -0.065700   -0.757900   -1.068400
N     -0.032300   -2.049000   -0.625200
C      0.022100   -2.141500    0.723300
N     -0.001400   -3.344100    1.425000
C      0.020000   -0.842600    1.202400
N      0.087400   -0.524800    2.590500
H      0.843400    1.904400    0.420000
H     -0.110900    1.790800   -1.070500
H     -0.916800    1.885000    0.508100
H     -0.112300   -2.797100   -1.291100
H      0.699400   -4.008500    1.116500
H      0.131600   -3.144700    2.411500
H     -0.760000   -0.068100    2.915100
H      0.854300    0.109500    2.792400
