16
gdb_11907
O     -0.049700    1.476600   -0.046900
C      0.078400    0.063800    0.038500
C     -1.272000   -0.703500    0.138300
C     -1.166200   -1.844400   -0.875200
C     -1.733200   -3.188700   -0.679800
O     -2.348400   -2.263400   -1.575800
C      0.064500   -1.583400   -1.665600
C      0.750000   -0.553800   -1.168800
H     -0.494000    1.675600   -0.879000
H      0.682000   -0.092100    0.940200
H     -1.485200   -1.051700    1.151200
H     -2.087000   -0.035300   -0.156900
H     -1.263100   -4.054000   -1.147500
H     -2.290100   -3.403200    0.232400
H      0.333000   -2.189900   -2.522900
H      1.688600   -0.166300   -1.548600
