16
gdb_17701
O     -0.134900    1.417900    0.017400
C      0.035900    0.058100   -0.026100
C      0.090200   -1.009800    1.044300
C     -1.014500   -1.009200   -0.050900
C     -0.315800   -1.855100   -1.138300
C      0.443300   -2.995800   -0.417400
C      1.170300   -1.846600    0.325800
C      0.917500   -0.895000   -0.909400
H      0.624800    1.806200    0.466400
H     -0.160900   -0.956300    2.095700
H     -2.063100   -0.940000    0.205800
H     -0.811300   -1.990200   -2.098800
H     -0.129000   -3.721400    0.169000
H      1.118200   -3.520800   -1.101200
H      2.140100   -1.977400    0.805100
H      1.657600   -0.640900   -1.664400
