12
gdb_21813
O     -0.008800   -0.046200    0.353100
C      0.073100    0.977500   -0.264300
C      1.256600    1.934400   -0.099500
N      1.322100    2.912700   -1.161900
N      1.558200    2.589200   -2.429100
C      1.485700    3.777300   -3.015400
N      1.213700    4.775500   -2.143700
N      1.108100    4.211600   -0.968400
H     -0.703800    1.313900   -0.983200
H      1.142500    2.488300    0.836400
H      2.183900    1.358400   -0.059500
H      1.630200    3.925800   -4.073000
