14
gdb_845
C      0.033800    1.459300   -0.046300
C     -0.053400   -0.023300    0.007200
N     -1.090300   -0.777400   -0.178000
C     -0.623900   -2.083500   -0.015400
C     -1.525000   -3.263400   -0.151100
C      0.699100   -2.028400    0.265000
O      1.083100   -0.712400    0.283300
H      0.742700    1.785300   -0.814500
H     -0.952100    1.863500   -0.276500
H      0.374300    1.869000    0.910300
H     -1.976900   -3.297200   -1.148100
H     -0.979400   -4.196600    0.010900
H     -2.345300   -3.213700    0.572700
H      1.466200   -2.756800    0.463900
