15
gdb_9924
C     -0.033900    1.542400   -0.014000
C      0.019200    0.023800   -0.012600
C     -1.142200   -0.644300   -0.534900
N     -2.065800   -1.198000   -0.960000
C      1.373000   -0.700300   -0.250800
O      2.517400    0.057700   -0.409400
C      0.737600   -0.725000    1.108400
O      1.340700    0.096800    2.070900
H      0.955000    1.959600    0.175300
H     -0.371900    1.901200   -0.989300
H     -0.722100    1.912500    0.750200
H      1.356500   -1.585900   -0.877100
H      2.724400    0.426900    0.461600
H      0.275000   -1.633000    1.485800
H      1.850100   -0.465200    2.665000
