20
gdb_274
C     -0.017400    1.604200    0.077700
C      0.013700    0.076100   -0.021900
C     -1.387100   -0.547100   -0.032000
C     -1.424800   -2.086200   -0.039400
C     -2.861400   -2.589600    0.157100
C     -0.816600   -2.684300   -1.316300
H      0.992600    2.026200    0.083600
H     -0.557000    2.044900   -0.768100
H     -0.520500    1.931600    0.994500
H      0.560000   -0.213700   -0.927400
H      0.584900   -0.333600    0.822300
H     -1.933900   -0.189500    0.851600
H     -1.946000   -0.171700   -0.902200
H     -0.826800   -2.436900    0.815000
H     -3.505700   -2.266100   -0.669600
H     -2.898800   -3.683500    0.196000
H     -3.296300   -2.205100    1.085800
H      0.234300   -2.408200   -1.442000
H     -0.869800   -3.778100   -1.300100
H     -1.360800   -2.340300   -2.204600
