18
gdb_14758
C     -0.142400    1.326600    0.004500
O     -0.021500   -0.077300   -0.011800
C      0.679900   -0.563600   -1.138100
C      0.641600   -2.081200   -1.081500
N     -0.740500   -2.539300   -1.167000
C     -0.872900   -3.973100   -0.958400
C     -2.277700   -4.389000   -1.011900
N     -3.384500   -4.718400   -1.032800
H      0.842300    1.818100    0.038400
H     -0.683000    1.698700   -0.879300
H     -0.702700    1.596000    0.902800
H      0.205600   -0.211800   -2.068100
H      1.723600   -0.209700   -1.131200
H      1.208400   -2.486700   -1.929300
H      1.149000   -2.415200   -0.157800
H     -1.285100   -2.034700   -0.474300
H     -0.330000   -4.500700   -1.753500
H     -0.448700   -4.334000   -0.002400
