17
gdb_10554
O     -0.301900    0.580100   -1.120400
C     -0.076300    0.249900    0.248600
C     -1.287100   -0.538600    0.739800
C     -1.347700   -1.957600    0.180000
C     -2.653500   -2.462700   -0.350500
N     -1.569500   -2.137800   -1.275400
C     -0.413700   -2.881500    0.780400
C      0.367200   -3.620700    1.319100
H      0.542100    0.788100   -1.530200
H      0.833400   -0.354300    0.369400
H      0.043100    1.163000    0.851300
H     -1.270800   -0.582100    1.834000
H     -2.190000    0.009800    0.447100
H     -2.885400   -3.520500   -0.271900
H     -3.510400   -1.797600   -0.269500
H     -1.689100   -1.215400   -1.687000
H      1.052400   -4.289200    1.778400
