24
gdb_7822
C     -0.031900    1.567800    0.005400
C      0.017800    0.037000   -0.007500
C      0.690500   -0.500600   -1.282100
C      0.763900   -2.033000   -1.290100
C      1.462400   -2.567200   -0.032900
C      0.798900   -2.054100    1.256500
C      1.514500   -2.572000    2.507700
C      0.724100   -0.517900    1.241100
H      0.978900    1.993000   -0.004000
H     -0.563000    1.956800   -0.870100
H     -0.540500    1.942900    0.900100
H     -1.017800   -0.336700    0.003200
H      0.154000   -0.140600   -2.168400
H      1.707900   -0.087300   -1.346900
H     -0.254100   -2.444200   -1.341200
H      1.283300   -2.382800   -2.189700
H      1.470100   -3.664000   -0.038600
H      2.515800   -2.250200   -0.039600
H     -0.233400   -2.436600    1.272600
H      2.551700   -2.217600    2.541300
H      1.017900   -2.229300    3.422000
H      1.537700   -3.667000    2.529200
H      1.746000   -0.110000    1.284300
H      0.214400   -0.161500    2.145600
