15
gdb_2144
C     -0.121000    1.554500    0.028800
C      0.064600    0.036600   -0.026600
C      0.865300   -0.504400   -1.231800
C      1.917100   -1.393600   -0.616600
C      1.894900   -1.388800    0.721200
C      0.822900   -0.492000    1.209800
O      0.572200   -0.204300    2.357900
H      0.842500    2.070600   -0.047200
H     -0.759500    1.908600   -0.786100
H     -0.577800    1.836000    0.981100
H     -0.924500   -0.437900    0.000600
H      0.244800   -1.056300   -1.947700
H      1.337300    0.305000   -1.804700
H      2.614900   -1.957800   -1.227100
H      2.555500   -1.925900    1.389500
