18
gdb_8174
C      0.045600    1.462700    0.022500
C      0.019600   -0.024300   -0.016200
C     -0.034900   -0.902700   -1.021100
C     -0.030500   -2.240900   -0.264600
C      1.121300   -2.021700    0.755500
C      0.049000   -0.978600    1.215400
C     -0.076900   -0.440000    2.612600
O     -0.970500   -1.969000    0.828400
H      0.950400    1.838100    0.518200
H      0.013400    1.887600   -0.984600
H     -0.806000    1.864300    0.586500
H     -0.069700   -0.748100   -2.089900
H     -0.208200   -3.175500   -0.794400
H      1.227700   -2.846800    1.465300
H      2.086700   -1.663000    0.391100
H      0.742800    0.251000    2.834500
H     -1.021500    0.100200    2.734300
H     -0.051500   -1.252900    3.342900
