17
gdb_1925
C     -0.032400    1.525000    0.024000
C      0.033800    0.016900    0.027700
C      0.962600   -0.815100   -0.923400
C      0.616400   -1.919900    0.102100
C      0.666800   -0.822900    1.191200
O     -0.791600   -2.128700   -0.095600
C     -1.274900   -0.769400   -0.158200
H      0.959600    1.966000    0.164400
H     -0.434000    1.901200   -0.924000
H     -0.679100    1.894700    0.828200
H      0.642800   -0.972800   -1.956900
H      2.003600   -0.488500   -0.879900
H      1.125100   -2.880000    0.169700
H      1.679400   -0.497000    1.437400
H      0.075900   -0.987700    2.096100
H     -2.004100   -0.588300    0.641600
H     -1.756900   -0.581800   -1.126100
