16
gdb_18682
O      0.017400   -0.023000   -0.105500
C      0.009400    1.186300   -0.056900
C     -1.297900    1.982500   -0.002400
O     -1.236300    3.125100   -0.835100
C     -0.293100    4.077900   -0.377900
C      1.120800    3.514100   -0.224900
C      1.546600    2.932900    1.086100
C      1.252500    2.005000   -0.089100
H     -2.102700    1.343600   -0.370700
H     -1.528900    2.262000    1.042000
H     -0.297700    4.876600   -1.123600
H     -0.634900    4.508300    0.578400
H      1.886600    4.001100   -0.819200
H      2.584000    3.013000    1.389500
H      0.837600    2.954900    1.907700
H      2.102000    1.502600   -0.537400
