10
gdb_21747
O     -0.083700    1.311600    0.009800
C      1.253200    1.737800   -0.000500
N      2.146800    0.807600   -0.014200
C      1.387200   -0.361100   -0.013200
C      0.075500   -0.015800    0.001200
O     -0.768100   -1.022300    0.003900
N      0.074800   -2.199500   -0.010200
C      1.323800   -1.778400   -0.020200
H      1.386600    2.807500    0.004000
H      2.103700   -2.526400   -0.031700
