13
gdb_4588
N      0.017200    1.407500    0.186200
C      0.007600    0.015600    0.048100
C     -1.175400   -0.732800    0.053400
N     -1.203100   -2.060200   -0.011100
C     -0.020400   -2.662000   -0.081900
O     -0.046600   -4.006900   -0.144000
N      1.174700   -2.072000   -0.101100
C      1.178200   -0.741900   -0.036000
H      0.833400    1.856200   -0.206600
H     -0.825100    1.859900   -0.142000
H     -2.140500   -0.230200    0.112400
H      0.876100   -4.289200   -0.190400
H      2.152600   -0.255300   -0.050900
