17
gdb_1357
C     -0.040200    1.539700    0.029600
C      0.015900    0.026400   -0.000600
C     -1.232700   -0.649500   -0.534500
C      1.344200   -0.662100   -0.292500
O      2.513500    0.080800   -0.451600
C      0.747100   -0.715500    1.098300
O      1.406500    0.072800    2.062900
H      0.904600    1.980300    0.348500
H     -0.268600    1.927100   -0.969500
H     -0.822700    1.888100    0.712600
H     -1.446100   -0.318100   -1.557300
H     -1.125900   -1.739400   -0.556300
H     -2.106700   -0.414600    0.084800
H      1.338900   -1.549800   -0.919700
H      2.706600    0.460200    0.417300
H      0.310200   -1.634400    1.485600
H      2.028200   -0.497000    2.529300
