19
gdb_18647
C      0.207500    1.636000   -0.032300
N      0.128000    0.184900    0.023700
C      1.186500   -0.715500   -0.392700
C      2.625200   -0.214700   -0.491100
C      2.969400    0.382400    0.895100
C      1.895300   -0.141200    1.887700
O      1.422300    0.842900    2.801800
C      0.743300   -0.650400    1.038700
H      1.219200    2.061100   -0.038100
H     -0.298900    1.970500   -0.944400
H     -0.322900    2.050500    0.828300
H      0.881700   -1.516000   -1.063900
H      3.272900   -1.066900   -0.723700
H      2.762000    0.510700   -1.301300
H      3.979300    0.107200    1.213600
H      2.925900    1.474800    0.887400
H      2.293700   -1.003200    2.447300
H      2.159000    1.108500    3.361200
H      0.082800   -1.385600    1.493000
