13
gdb_17018
O      0.091400    0.060000   -0.511700
C      0.054500    1.215800   -0.159700
N      1.087600    1.879500    0.466000
C      2.547700    1.612200    0.191900
C      2.449000    2.612100   -1.013200
C      1.588800    3.266800    0.118500
C      2.776200    2.887200    1.053800
O      3.484100    3.337700    1.887500
H     -0.855700    1.844700   -0.217200
H      2.972200    0.614400    0.233600
H      3.358500    3.127200   -1.331900
H      1.865500    2.225400   -1.849200
H      0.938200    4.137200    0.089300
