18
gdb_13864
N     -0.011600    1.298800   -0.132200
C      0.011700   -0.069600    0.129400
O      1.056600   -0.682200    0.279900
N     -1.219000   -0.673200    0.156800
C     -2.477100   -0.048500   -0.253200
C     -3.489300   -1.206400   -0.212000
C     -2.624700   -2.445400   -0.498200
C     -1.317400   -2.133400    0.241000
H      0.875500    1.732000    0.075600
H     -0.810200    1.831600    0.176600
H     -2.770900    0.763600    0.425300
H     -2.392200    0.378500   -1.262200
H     -3.930400   -1.279400    0.788000
H     -4.304900   -1.067000   -0.925100
H     -3.086600   -3.377100   -0.163600
H     -2.434800   -2.532300   -1.573800
H     -0.431300   -2.588300   -0.204700
H     -1.365200   -2.460700    1.288800
