14
gdb_19781
O      0.001200    0.011500   -0.033800
C     -0.014700    1.215500    0.009700
C     -1.259200    2.083000   -0.068500
N     -1.382900    3.123600    0.988100
C     -0.815700    3.483900   -0.316600
C      0.713300    3.505000   -0.339600
N      1.329200    3.161000    0.947400
C      1.202500    2.116900   -0.105400
H     -2.153400    1.637500   -0.490000
H     -2.359400    3.412500    1.014800
H     -1.358100    4.147200   -0.980900
H      1.217100    4.182700   -1.019500
H      2.297700    3.476700    0.945000
H      2.095600    1.696000   -0.553700
