18
gdb_7158
C      0.873600    1.237300   -0.261800
O      0.917100   -0.163100   -0.392700
C     -0.193800   -0.686100   -1.076100
C     -0.033000   -2.211000   -1.186100
O     -1.245200   -2.783700   -1.674900
C      1.121600   -2.587900   -2.000100
C      2.036500   -2.897400   -2.719800
C      3.157000   -3.276900   -3.567600
H      0.864000    1.738800   -1.242600
H     -0.014100    1.568500    0.300300
H      1.770400    1.542900    0.282400
H     -1.132200   -0.481400   -0.536400
H     -0.282900   -0.250500   -2.086200
H      0.091400   -2.601200   -0.169000
H     -1.215700   -2.734900   -2.636300
H      3.019400   -4.281800   -3.981700
H      3.277900   -2.583600   -4.407100
H      4.094300   -3.278000   -3.000700
