11
gdb_21346
N     -0.311000   -0.835200   -0.939700
C     -0.124600    0.124100   -0.325600
C      0.091300    1.356900    0.433500
N      1.382400    1.959100    0.145100
C      2.038000    2.175300   -1.012200
N      3.155200    2.814000   -0.751400
N      3.171400    2.991400    0.598600
N      2.122700    2.487100    1.149300
H     -0.717900    2.062000    0.213500
H      0.074100    1.149500    1.506500
H      1.688300    1.852500   -1.979300
