14
gdb_469
C     -0.150800    1.555600    0.066700
C      0.082100    0.055200    0.000400
C      0.904700   -0.428300   -1.203400
O      1.587000   -1.562200   -0.692600
C      1.899100   -1.221900    0.634700
O      0.868400   -0.379900    1.117400
H      0.800600    2.095700    0.038400
H     -0.766700    1.885600   -0.776900
H     -0.670000    1.822100    0.991000
H     -0.881500   -0.474300    0.027700
H      0.300600   -0.742400   -2.056900
H      1.614500    0.349800   -1.529300
H      1.950000   -2.142500    1.227100
H      2.864500   -0.687100    0.689800
