12
gdb_4616
O     -0.038400    1.413300    0.008800
C     -0.008100    0.048700    0.001100
C     -1.166500   -0.668300    0.004100
N     -1.090600   -2.024400   -0.003800
C      0.108800   -2.771000   -0.014900
O      0.066400   -3.982100   -0.021800
N      1.274400   -2.011800   -0.018000
C      1.195800   -0.712500   -0.010400
H      0.863800    1.749200    0.004200
H     -2.148700   -0.212600    0.012400
H     -1.932700   -2.582300   -0.001800
H      2.146000   -0.167800   -0.013200
