15
gdb_11762
N      0.019900   -1.167400   -0.015200
C      0.011000   -0.011100   -0.009000
C      0.009500    1.433400    0.010100
C     -0.301700    2.262300    1.314200
C      0.364400    3.395100    0.461000
C      1.335900    2.282100   -0.060700
C     -0.622300    3.474300   -0.713100
C     -0.859400    2.197100   -1.013900
H     -1.353700    2.375600    1.579700
H      0.296400    1.945000    2.172600
H      0.728600    4.317500    0.908100
H      2.082300    1.966600    0.673200
H      1.777800    2.413500   -1.049400
H     -1.012900    4.374100   -1.165300
H     -1.484700    1.739600   -1.765400
