16
gdb_19499
N      0.124200   -1.265800    0.068300
C      0.091900   -0.108900    0.084900
C      0.019800    1.328700    0.062000
C      0.481800    2.173500    1.213600
C      1.320800    1.548600    2.316300
C      2.487000    0.852500    1.573000
C      2.516200    1.528600    0.178200
N      1.215700    2.196500   -0.054800
H     -0.818300    1.690500   -0.528200
H     -0.113400    3.052200    1.447000
H      1.683600    2.349900    2.967900
H      0.748900    0.855800    2.939700
H      3.436300    0.977500    2.099000
H      2.303400   -0.218300    1.483400
H      3.269700    2.320700    0.136400
H      2.727400    0.825500   -0.631900
