13
gdb_3454
O     -0.000000    0.015000   -0.119200
C     -0.014900    1.196200   -0.043000
C     -1.081300    2.367000    0.087900
C     -0.023800    2.987300    1.055300
C      1.022800    2.395400    0.058700
C      0.616700    3.077100   -1.236000
C     -0.729800    3.058800   -1.217300
H     -2.121500    2.205500    0.359000
H     -0.037500    4.077800    1.126100
H     -0.003700    2.516400    2.043200
H      2.074100    2.262100    0.300600
H      1.286300    3.375600   -2.029500
H     -1.429100    3.338800   -1.991800
