21
gdb_6275
C     -0.003000    1.625200   -0.061900
C      0.045700    0.110100    0.179900
C      0.650700   -0.199800    1.556700
C     -1.359400   -0.492300    0.004100
C     -1.451800   -2.034300    0.075600
C     -2.902200   -2.528100   -0.093100
C     -0.583100   -2.658500   -0.929500
N      0.095100   -3.145600   -1.729300
H      0.995800    2.066600    0.012300
H     -0.400100    1.859400   -1.055100
H     -0.640800    2.122300    0.679000
H      0.696900   -0.332500   -0.585600
H      0.788800   -1.273200    1.718600
H      1.633200    0.271000    1.661300
H      0.012500    0.184100    2.362100
H     -2.027300   -0.090900    0.777900
H     -1.771200   -0.171300   -0.960400
H     -1.088500   -2.366700    1.055500
H     -3.531000   -2.098200    0.691600
H     -3.305500   -2.224200   -1.063200
H     -2.959800   -3.617200   -0.025500
