17
gdb_7086
C     -0.033700    1.399100   -0.465800
C     -0.404900   -0.075300   -0.250600
N      0.596900   -0.786000    0.523600
C      0.477700   -0.833700    1.793300
N     -0.500500   -0.332300    2.606500
N      1.487200   -1.564700    2.466800
C      1.712000   -1.695500    3.803000
O      1.040400   -1.219000    4.699800
H      0.952500    1.475400   -0.932400
H     -0.764200    1.894800   -1.113500
H      0.006400    1.945600    0.482800
H     -1.412700   -0.145100    0.193000
H     -0.474000   -0.565100   -1.228600
H     -1.077600    0.403300    2.239600
H     -0.319300   -0.351100    3.602800
H      2.139500   -1.987200    1.822000
H      2.608700   -2.309800    4.001900
