16
gdb_17391
C     -0.011100    1.473500    0.104200
C      1.256600    0.709900   -0.095000
O      1.703400    0.146900    1.145800
C      0.517900   -0.676600    1.212800
C      0.710400   -2.200000    1.316000
O     -0.151200   -2.259500    2.471700
C     -0.221000   -0.819300    2.552500
C     -0.052400   -0.037300   -0.044300
H     -0.206100    1.945000    1.063500
H     -0.375600    2.017900   -0.761700
H      1.990200    0.867200   -0.876000
H      0.333900   -2.807400    0.484400
H      1.745300   -2.484000    1.545300
H      0.347800   -0.421300    3.402600
H     -1.252700   -0.451100    2.591700
H     -0.613600   -0.548900   -0.814300
