18
gdb_14168
C     -0.180000    1.663500   -0.010000
C     -0.000700    0.160600   -0.015300
O     -1.252500   -0.403800   -0.333600
C      1.170300   -0.548600   -0.768100
C      2.458100    0.095400   -0.233500
C      2.093100    0.046500    1.288800
C      0.712400   -0.610000    1.141700
O      0.986000   -1.674300    0.162300
H      0.741400    2.197000    0.228100
H     -0.530700    1.995600   -0.991900
H     -0.942400    1.940400    0.724300
H     -1.114900   -1.360500   -0.331400
H      1.098900   -0.827500   -1.820000
H      3.331700   -0.513500   -0.474200
H      2.625100    1.105800   -0.615000
H      2.771600   -0.588500    1.861700
H      2.054400    1.029300    1.765100
H      0.176200   -0.951200    2.028000
