15
gdb_11852
O      0.178100    0.074200    0.753200
C      0.135800    1.246800    0.443400
N      1.124700    1.899400   -0.208200
C      2.490600    1.446700   -0.497300
C      2.843300    2.923800   -0.738700
C      4.085400    3.658000   -0.522700
O      3.578700    3.387200   -1.842800
C      1.382800    3.324700   -0.458700
H     -0.728800    1.908700    0.655500
H      2.979900    0.953700    0.348700
H      2.571900    0.812200   -1.386100
H      4.052400    4.702700   -0.217200
H      4.992400    3.119300   -0.252900
H      0.862200    3.731900   -1.332700
H      1.220000    3.978600    0.405200
