15
gdb_15331
C      0.093300    1.509400   -0.103100
C      0.038400    0.056900   -0.042000
C     -0.012000   -1.144800    0.019100
C     -0.045700   -2.581700    0.048000
N     -0.343500   -3.249100    1.320700
C     -1.321100   -3.377400    0.227200
C     -2.619500   -2.678700    0.448500
O     -3.649400   -3.006900   -0.084300
H      0.910800    1.846700   -0.749600
H     -0.838900    1.926500   -0.499300
H      0.255900    1.939900    0.890900
H      0.677000   -3.064300   -0.608100
H      0.197000   -4.106100    1.405000
H     -1.395700   -4.309300   -0.327500
H     -2.556300   -1.823600    1.153000
