17
gdb_18062
N     -0.023800   -0.974000   -0.493000
C     -0.012100    0.120400   -0.122100
C      0.025900    1.505700    0.348000
C      1.400200    2.138700    0.159900
C      1.915000    2.726500   -1.123200
C      0.814100    3.455600   -1.904700
C      0.551400    4.365700   -0.661000
C      1.653500    3.620000    0.103300
H     -0.749000    2.068000   -0.181100
H     -0.251200    1.518000    1.408900
H      2.176100    1.607500    0.705700
H      2.859900    2.401700   -1.541600
H      1.208500    4.023800   -2.748900
H     -0.016100    2.841300   -2.268500
H      0.815500    5.406700   -0.856100
H     -0.452100    4.348900   -0.222300
H      2.366400    4.086100    0.773300
