19
gdb_1972
C     -0.019200    1.591200    0.065400
C      0.061400    0.072900    0.047200
C      1.089300   -0.619500   -0.894100
C      1.363700   -1.657400    0.227800
C      2.789100   -2.115300    0.448700
O      2.810600   -2.951300    1.597800
C      0.729100   -0.666900    1.241200
H      0.967500    2.034900    0.242900
H     -0.394000    1.983600   -0.886900
H     -0.689300    1.945200    0.857100
H     -0.935000   -0.347700   -0.132100
H      0.738000   -0.987700   -1.861600
H      1.961600    0.023500   -1.063700
H      0.725100   -2.538700    0.105800
H      3.150500   -2.652900   -0.444400
H      3.439900   -1.234800    0.584800
H      3.718300   -3.228300    1.752300
H      1.496200   -0.043600    1.715800
H      0.083800   -1.075100    2.022000
