18
gdb_17855
C     -0.064400    1.460100   -0.121700
C      1.499600    1.509500   -0.062500
C      1.528700   -0.014700    0.107000
C     -0.010300   -0.063300    0.048600
C      0.821400   -0.676200   -1.029900
C      0.870800   -0.430500   -2.537800
O      0.925100   -1.854400   -2.783200
C      0.881400   -2.162600   -1.374100
H     -0.523000    1.968500    0.728800
H     -0.539600    1.825000   -1.038500
H      2.018700    1.905700   -0.941600
H      1.859700    2.043800    0.819100
H      2.210600   -0.569100    0.742600
H     -0.702000   -0.661100    0.632100
H     -0.022300    0.027500   -2.983200
H      1.764500    0.083900   -2.915400
H      1.780800   -2.699100   -1.042700
H     -0.005000   -2.755400   -1.110400
