13
gdb_3429
O      0.017800    0.023400    0.203300
C      0.035900    1.203100    0.007400
O     -1.113900    1.931500   -0.160600
C     -0.836900    3.253200   -0.650600
C      0.658100    3.471500   -0.482200
C      1.189100    3.272800    0.901800
C      1.212000    2.122100   -0.091000
H     -1.134000    3.303000   -1.704400
H     -1.448300    3.958600   -0.079100
H      1.171300    4.123500   -1.177600
H      2.150500    3.713100    1.138900
H      0.493300    3.224100    1.733600
H      2.151900    1.711600   -0.431800
