18
gdb_16226
C     -0.156100    1.486400    0.025600
C     -0.048200   -0.003600   -0.007900
C      0.071000   -0.801500   -1.069000
C      0.147700   -2.236400   -0.634000
O      0.061100   -2.195800    0.790300
C     -0.059600   -0.852900    1.213900
C      0.599200   -0.484400    2.518800
C     -0.911700   -0.592200    2.429800
H      0.663300    1.934300    0.600900
H     -0.128100    1.906000   -0.982800
H     -1.090400    1.809700    0.500400
H      0.109800   -0.490700   -2.105400
H     -0.674600   -2.848900   -1.037700
H      1.089500   -2.723300   -0.934100
H      1.127500   -1.284100    3.025400
H      1.045800    0.498500    2.625300
H     -1.502100    0.316800    2.475300
H     -1.377100   -1.462800    2.877900
