15
gdb_3410
O     -0.228200    1.470300    0.078500
C     -0.121000    0.063500    0.074100
C     -0.467300   -0.780600    1.262100
C     -1.573400   -0.110100    2.081200
C     -2.493600   -0.116600    0.807800
O     -3.052200    1.082500    0.347900
C     -1.360500   -0.758700   -0.009300
H      0.438400    1.824900    0.676600
H      0.708900   -0.307200   -0.526600
H      0.190300   -1.566700    1.613700
H     -1.962300   -0.735300    2.887300
H     -1.338600    0.880500    2.481400
H     -3.324600   -0.813300    0.942300
H     -2.306400    1.666500    0.158100
H     -1.491400   -1.506000   -0.783500
