14
gdb_8621
C     -0.003600    1.592500    0.079000
C     -0.013400    0.050400    0.014900
C      0.748700   -0.494600    1.240600
O      0.219100   -1.057000    2.159000
C     -1.452800   -0.508400    0.055100
O     -2.428800    0.183200    0.129000
C      0.645300   -0.457700   -1.184000
C      1.185000   -0.914400   -2.156800
H      1.022400    1.967500    0.115200
H     -0.494600    2.002100   -0.805400
H     -0.547700    1.930800    0.963200
H      1.842900   -0.305500    1.206500
H     -1.508100   -1.613000   -0.007000
H      1.658900   -1.303300   -3.024700
