16
gdb_15574
O     -0.042700    1.443600    0.064900
C      0.030400    0.032500    0.019400
C     -1.387100   -0.576200   -0.029600
C     -1.291200   -1.791100   -0.988700
C     -0.047300   -1.504200   -1.786400
C      0.671400   -0.509000   -1.249600
C      1.930600    0.018400   -1.763500
O      2.522600    0.950400   -1.250600
H      0.861100    1.761000   -0.067900
H      0.591400   -0.345500    0.891600
H     -1.773500   -0.838900    0.956900
H     -2.043400    0.188000   -0.456000
H     -1.173900   -2.738200   -0.443000
H     -2.176700   -1.916200   -1.621300
H      0.230800   -2.062100   -2.676200
H      2.331700   -0.477300   -2.673300
