18
gdb_11296
O     -0.757600    1.155900    0.841200
C      0.030200    0.226800    0.097900
C      0.901000   -0.660300    1.017700
C      0.034600   -1.900700    1.371400
C     -1.325400   -1.682600    0.642200
C     -0.951400   -0.755600   -0.539800
C     -1.997100   -2.913600    0.257900
C     -2.539000   -3.936300   -0.069100
H     -0.160400    1.704700    1.358800
H      0.633400    0.757600   -0.652100
H      1.812900   -0.962000    0.492800
H      1.218000   -0.100300    1.903700
H      0.503300   -2.816500    1.001800
H     -0.109900   -2.027200    2.446500
H     -1.983500   -1.109000    1.304000
H     -1.814300   -0.250000   -0.977900
H     -0.450200   -1.332500   -1.324000
H     -3.024700   -4.836900   -0.352000
