17
gdb_13114
C      0.030900    1.491000    0.086000
C      0.186200   -0.025200    0.052800
N      0.468600   -0.485900   -1.311800
C      0.619500   -1.922200   -1.410900
C      1.134300   -2.457500   -2.759300
O      2.353000   -2.952300   -2.114200
C      1.972600   -2.450000   -0.897400
O      2.580100   -2.472300    0.124000
H      0.934400    1.979700   -0.288800
H     -0.813000    1.816900   -0.533600
H     -0.155600    1.836500    1.106800
H      1.025000   -0.334300    0.684400
H     -0.717100   -0.505700    0.472800
H     -0.285400   -0.189500   -1.926000
H     -0.222000   -2.506000   -0.998100
H      0.575700   -3.278400   -3.212100
H      1.373700   -1.684200   -3.491600
