14
gdb_10968
O     -0.093200    1.454800   -0.060100
C     -0.013200    0.076500   -0.022600
C     -1.311300   -0.774400   -0.056000
C     -0.390900   -1.935200    0.441100
C      0.646400   -1.995600   -0.665100
C      0.884900   -0.707000   -0.972200
C      0.315600   -0.790600    1.286400
O      0.790700   -0.634000    2.360000
H      0.779300    1.821800    0.118500
H     -2.051300   -0.453100    0.683300
H     -1.752300   -0.914800   -1.045400
H     -0.778200   -2.848900    0.881300
H      1.157100   -2.885700   -1.004100
H      1.626900   -0.275000   -1.629700
