17
gdb_1086
C     -0.035700    1.570700    0.088400
C     -0.003900    0.038900    0.031500
C      0.755500   -0.540700    1.234100
O     -1.332100   -0.485900   -0.000100
C      0.652200   -0.468100   -1.276100
C      0.048200    0.047100   -2.498100
C     -0.429100    0.474200   -3.515100
H      0.975100    1.991500    0.073800
H     -0.592100    1.970900   -0.761700
H     -0.518900    1.905800    1.013900
H      0.277300   -0.230100    2.169800
H      0.749900   -1.633900    1.197300
H      1.794200   -0.195400    1.261700
H     -1.809800   -0.122600    0.752900
H      1.717800   -0.210000   -1.256500
H      0.591000   -1.562800   -1.273500
H     -0.860000    0.843800   -4.412200
