14
gdb_18185
C     -0.050400   -1.252200   -0.097200
C     -0.032400   -0.053900   -0.015200
C      0.019700    1.401900    0.069400
N     -0.560700    1.906500    1.346000
C      0.307100    2.676200    1.864900
N      1.537800    2.920900    1.182600
C      2.361900    1.676700    1.139200
C      1.439400    1.998500    0.029400
H     -0.077800   -2.311600   -0.166400
H     -0.573400    1.822100   -0.753500
H      0.147000    3.187600    2.810000
H      3.426800    1.848600    1.023300
H      2.085600    0.873700    1.816700
H      1.826900    2.361400   -0.915600
