16
gdb_6320
C      0.073000    1.442700   -0.076900
C     -0.001600   -0.066900    0.094200
O     -1.363900   -0.535500    0.095900
C     -1.962000   -0.672500    1.307200
C     -3.384400   -1.144400    1.140900
O     -1.413400   -0.441000    2.353000
C      0.701400   -0.840700   -1.010400
O      1.650300   -0.426800   -1.621300
H      1.116100    1.736700   -0.213400
H     -0.490800    1.756600   -0.959500
H     -0.330200    1.944600    0.805100
H      0.456800   -0.361500    1.047900
H     -3.957900   -0.400900    0.579900
H     -3.408300   -2.073900    0.565800
H     -3.833600   -1.296500    2.121300
H      0.268800   -1.848700   -1.195100
