12
gdb_280
C      0.084300    1.473600    0.009800
C      0.054900   -0.031900   -0.000600
O     -0.002900   -0.706700    1.005700
C      0.092400   -0.723200   -1.360600
N      0.184100   -2.079600   -1.245500
N      0.056400    0.009700   -2.410500
H      1.005300    1.830600   -0.460700
H     -0.735400    1.870000   -0.594900
H      0.017900    1.830600    1.037800
H      0.032800   -2.455400   -0.321300
H     -0.009000   -2.667300   -2.038200
H      0.078000   -0.552400   -3.264700
