13
gdb_105
C     -0.044600    1.570400    0.011000
C      1.474100    1.229800   -0.006700
C      1.168300    0.144300    1.066400
C      0.039100    0.016200    0.002400
C      1.146200    0.154200   -1.082700
H     -0.433000    2.036500    0.921300
H     -0.452300    2.045700   -0.885900
H      2.307100    1.934400   -0.012100
H      1.873500   -0.688900    1.137300
H      0.872100    0.502000    2.056800
H     -0.793900   -0.688300    0.007600
H      0.830000    0.520700   -2.063600
H      1.849700   -0.678300   -1.175600
