20
gdb_12926
C      0.152800    1.072900   -0.391100
O     -0.069700    0.001500    0.502800
C     -1.308500   -0.610500    0.313100
C     -1.552500   -1.639900   -0.758000
C     -0.285300   -2.470500   -0.989000
C     -0.254400   -2.836700    0.526300
C     -1.534000   -2.014300    0.754800
C     -2.640800   -2.417700    1.687400
H      1.150600    1.466800   -0.183300
H      0.104200    0.745300   -1.439400
H     -0.583500    1.879000   -0.247800
H     -2.155900    0.057900    0.487300
H     -2.393600   -1.566900   -1.439400
H     -0.461900   -3.341500   -1.623400
H      0.580800   -1.925300   -1.375100
H     -0.417000   -3.903900    0.697400
H      0.622700   -2.513800    1.092400
H     -2.316700   -2.351800    2.733600
H     -3.518500   -1.772900    1.572900
H     -2.958700   -3.450700    1.504800
