10
gdb_20308
C      0.021600   -1.194000   -0.004200
C      0.024200    0.008800    0.002400
C     -0.018200    1.427600    0.010800
C     -1.225700    2.136800    0.030700
N     -1.226400    3.457900    0.038100
N     -0.056000    4.094500    0.026100
N      1.083200    3.434400    0.007400
N      1.134400    2.110900   -0.000700
H      0.034800   -2.256600   -0.010200
H     -2.189300    1.636900    0.040700
