15
gdb_18289
O     -0.007100    1.468200   -0.218800
C     -0.035100    0.086200   -0.099600
C     -1.293200   -0.709300    0.092300
C     -2.640000   -0.038900   -0.045700
O     -2.676500    0.918700   -1.130600
C     -2.048200    0.529100   -2.285700
N     -1.083200   -0.277000   -2.400800
C     -0.524700   -0.843700   -1.219000
H     -0.879000    1.780900   -0.486400
H      0.847700   -0.255000    0.432300
H     -1.281300   -1.537400    0.796000
H     -3.417000   -0.791900   -0.227900
H     -2.916000    0.533300    0.844300
H     -2.476800    1.035300   -3.146900
H      0.056700   -1.740500   -1.403100
