17
gdb_19882
O      0.050000    1.415200   -0.136100
C     -0.033400    0.040300   -0.003900
C     -0.410700   -0.679100    1.268100
C     -1.154300    0.081600    2.374500
C     -2.530300    0.436400    1.811900
N     -2.502600    1.402100    0.692100
C     -2.619500   -0.059900    0.413500
C     -1.331100   -0.751400    0.037300
H     -0.826100    1.767500    0.118900
H      0.765300   -0.440000   -0.565000
H      0.190200   -1.531500    1.569400
H     -1.277800   -0.564000    3.249500
H     -0.612600    0.977500    2.698700
H     -3.388800    0.467000    2.475100
H     -3.407000    1.853500    0.590600
H     -3.549700   -0.414500   -0.015900
H     -1.420800   -1.649900   -0.563100
