18
gdb_16841
C      0.210200    1.555200   -0.089100
C      0.045200    0.048300    0.039300
O      0.634300   -0.574400   -1.104300
C      1.205900   -1.839500   -0.764400
C      2.436100   -2.065200   -1.630500
C      1.468100   -1.754000    0.729000
O      2.177200   -0.564700    1.100900
C      0.749100   -0.584600    1.226900
H      1.271800    1.813400   -0.069400
H     -0.218700    1.902500   -1.032700
H     -0.298400    2.070600    0.731800
H     -1.026100   -0.211600    0.105000
H      0.471000   -2.646800   -0.931700
H      3.193300   -1.312000   -1.399800
H      2.855900   -3.060500   -1.452800
H      2.172100   -1.986200   -2.688300
H      1.672100   -2.644100    1.318100
H      0.350100   -0.493800    2.233600
