22
gdb_8064
C     -0.031100    1.597600    0.013600
C     -0.195700    0.075300   -0.083000
C      0.620200   -0.524500   -1.221800
C      2.166400   -0.737300   -1.127400
C      1.903500   -1.965700   -0.212200
C      0.850700   -2.072100   -1.362800
C     -0.197400   -3.137700   -1.551500
C      2.020400   -1.709500   -2.331300
H      1.008200    1.870800    0.224900
H     -0.315700    2.086800   -0.924700
H     -0.654800    2.016300    0.809700
H      0.063800   -0.377300    0.879700
H     -1.254900   -0.162100   -0.251800
H      0.313000   -0.055100   -2.166700
H      2.932700    0.028100   -0.996200
H      2.681400   -2.735400   -0.203900
H      1.535800   -1.782800    0.799000
H     -0.900900   -3.155200   -0.711400
H     -0.774500   -2.966000   -2.467200
H      0.258500   -4.131400   -1.624800
H      1.741500   -1.267600   -3.293000
H      2.805100   -2.462900   -2.448100
