11
gdb_77
C      0.073000    1.388400    0.064400
O      0.210500   -0.037400    0.046100
C      0.501000   -0.572200   -1.159800
C      0.622200   -2.073800   -1.060300
O      0.639200    0.082200   -2.161600
H      1.000300    1.870600   -0.255300
H     -0.733400    1.707800   -0.600800
H     -0.157500    1.651500    1.096900
H     -0.313300   -2.502000   -0.689400
H      0.856500   -2.484300   -2.041600
H      1.406500   -2.340600   -0.346300
