13
gdb_5496
N      0.052200    1.389400    0.166000
C      0.011900    0.000600    0.049000
C     -1.089800   -0.824200    0.028800
N     -0.635400   -2.132200   -0.017500
C      0.715900   -2.167400   -0.027100
C      1.167400   -0.854800    0.010700
C      2.508000   -0.412400   -0.002300
N      3.592600   -0.001300   -0.020600
H      0.922600    1.790100   -0.158300
H     -0.733300    1.862400   -0.258300
H     -2.142300   -0.597700    0.053400
H     -1.229800   -2.941900   -0.039600
H      1.269400   -3.090500   -0.066200
