16
gdb_13733
C      0.012900    1.400600    0.376300
C      0.094100   -0.037600   -0.097500
O      1.131000   -0.538800   -0.471700
C     -1.189500   -0.811000   -0.062500
C     -1.266200   -2.113100   -0.813100
C     -1.222600   -2.162300    0.690700
C     -0.081800   -2.661600    1.398600
C      0.844300   -3.101500    2.026300
H      1.000300    1.861400    0.338400
H     -0.683600    1.968100   -0.251900
H     -0.377300    1.439800    1.399800
H     -2.095000   -0.222700    0.041300
H     -2.197700   -2.370200   -1.303400
H     -0.356300   -2.394600   -1.329900
H     -2.171600   -2.351300    1.184800
H      1.676600   -3.485500    2.561800
