13
gdb_3458
O     -0.007000   -0.008500    0.035800
C     -0.010000    1.181400   -0.023700
C     -1.065600    2.318300    0.042500
C     -0.020600    2.986700    1.004500
C      1.004500    2.351600    0.022700
O      0.737500    3.029600   -1.213000
C     -0.717800    3.036700   -1.269700
H     -2.110300    2.154700    0.293300
H     -0.017100    4.078000    1.037000
H     -0.008400    2.551300    2.005100
H      2.073300    2.265000    0.196400
H     -1.060500    2.499600   -2.161100
H     -1.077800    4.070800   -1.312000
