14
gdb_257
C     -0.000800    1.678000    0.068100
C     -0.054800    0.157900   -0.029700
C      0.614000   -0.549000    1.143500
O     -1.444300   -0.239100   -0.057200
C     -1.910200   -0.887500   -1.136700
O     -3.044100   -1.249900   -1.239400
H      1.038200    2.019900    0.095200
H     -0.495300    2.141100   -0.790100
H     -0.501800    2.019200    0.978800
H      0.414000   -0.166400   -0.969300
H      0.130000   -0.268200    2.083500
H      0.546600   -1.634700    1.033300
H      1.670800   -0.271600    1.201300
H     -1.133300   -1.046200   -1.911700
