16
gdb_12630
C     -0.101500    1.541000    0.034200
C      0.056900    0.020900   -0.034200
N      0.888900   -0.411100   -1.168500
C      1.836900   -1.099100   -0.661000
N      1.828500   -1.247700    0.723600
C      2.789900   -1.950500    1.545500
C      0.727700   -0.554300    1.221300
O      0.421000   -0.450900    2.385900
H      0.875800    2.028600    0.094400
H     -0.613000    1.906400   -0.859000
H     -0.680500    1.811300    0.921100
H     -0.934800   -0.439200   -0.133700
H      2.631700   -1.564500   -1.236700
H      2.816000   -3.018100    1.304200
H      3.795700   -1.534200    1.427400
H      2.471700   -1.826500    2.582700
