17
gdb_7295
C     -0.385000    1.332900    0.123000
N     -0.120000   -0.081800   -0.058700
C     -0.061000   -0.888300    1.158800
C     -1.332800   -0.930400    1.879600
C     -2.374600   -0.951200    2.478500
C      0.139400   -0.704100   -1.258700
C      0.094300    0.153400   -2.515500
O      0.395500   -1.895200   -1.323300
H     -0.533300    1.828100   -0.833900
H     -1.290600    1.469100    0.724300
H      0.446400    1.828600    0.643900
H      0.238400   -1.892000    0.847600
H      0.721100   -0.493600    1.823700
H     -3.295400   -0.988700    3.006200
H      0.818800    0.972700   -2.479300
H      0.334100   -0.497200   -3.355500
H     -0.897200    0.588700   -2.674500
