18
gdb_10993
O     -0.169100    1.382600   -0.117700
C     -0.007600   -0.018500   -0.017000
C      0.094600   -0.615900    1.418100
C     -1.424400   -0.319000    1.561300
C     -1.415400   -0.680700    0.034800
O     -2.414600   -0.311900   -0.851800
C     -1.064900   -2.171400    0.051400
C      0.101000   -2.126600    1.097300
H      0.675000    1.805800    0.063800
H      0.703600   -0.390900   -0.768500
H      0.825400   -0.245500    2.137400
H     -2.011400   -0.950300    2.233800
H     -1.633100    0.736100    1.732800
H     -2.388300    0.650500   -0.916600
H     -1.911500   -2.782800    0.374000
H     -0.746100   -2.523900   -0.933500
H      1.053900   -2.459900    0.675200
H     -0.104600   -2.733700    1.982700
