17
gdb_10411
C     -0.007900    1.500900    0.108700
N     -0.120200    0.058200   -0.088300
C      0.649600   -0.473300   -1.204600
C      2.208300   -0.562900   -1.015000
O      2.127500   -1.974000   -0.743700
C      0.744700   -2.024400   -1.135500
C      0.206600    0.092300   -2.471000
C     -0.125600    0.541400   -3.535300
H      1.025500    1.864600    0.240700
H     -0.437300    2.017700   -0.753700
H     -0.583200    1.782400    0.994600
H      0.169300   -0.427300    0.755300
H      2.793200   -0.347700   -1.917000
H      2.612900    0.002800   -0.167300
H      0.103300   -2.484700   -0.375100
H      0.599800   -2.528900   -2.097300
H     -0.429300    0.939100   -4.472100
