12
gdb_19638
N      0.084600   -1.123200   -0.048500
C      0.029700    0.033000   -0.036600
C     -0.085800    1.448200   -0.020200
C     -0.943600    2.434800    0.816300
C     -0.786100    3.481700   -0.293800
C      0.234400    3.369300    0.809500
N      1.099400    2.399300   -0.003000
C      0.079300    2.480200   -1.094000
H     -1.744100    2.288200    1.525200
H     -1.452600    4.282000   -0.577500
H      0.620200    4.068800    1.538400
H      0.331900    2.359300   -2.140100
