22
gdb_15188
C     -0.077700    1.479100    0.012600
C     -0.064800   -0.031900    0.175000
O     -1.364800   -0.523200   -0.071100
C     -1.466000   -1.925300    0.045300
C     -2.906900   -2.336400   -0.238400
C     -3.109800   -3.833800   -0.159400
C     -3.363300   -4.503100    1.170200
C     -4.468800   -4.408100    0.147200
H      0.918300    1.892600    0.197700
H     -0.385200    1.752500   -1.000800
H     -0.779700    1.934300    0.717000
H      0.655100   -0.489500   -0.525600
H      0.261800   -0.308600    1.192500
H     -0.780600   -2.420400   -0.665700
H     -1.167700   -2.253200    1.055900
H     -3.563400   -1.831200    0.480600
H     -3.186300   -1.963700   -1.231600
H     -2.508900   -4.404900   -0.863700
H     -2.916700   -5.473100    1.359300
H     -3.433400   -3.869300    2.048600
H     -5.279300   -3.712800    0.340500
H     -4.775100   -5.312900   -0.366100
