12
gdb_3276
N      0.008500    1.118900    0.367500
C     -0.022000   -0.079800    0.014300
O      1.000200   -0.940200   -0.382600
C      0.060200   -2.019800   -0.648000
C     -0.229100   -2.869200    0.593300
O     -1.269300   -1.951200    1.021100
C     -1.103900   -1.135000   -0.157100
H      0.961000    1.488500    0.375900
H      0.203700   -2.462500   -1.630800
H     -0.644700   -3.861000    0.380400
H      0.594000   -2.948600    1.310200
H     -2.038100   -0.884900   -0.658300
