15
gdb_13446
O     -0.875500    1.461500    0.158800
C     -0.359500    0.194900   -0.069500
C     -0.310200   -0.682500    1.161500
O     -0.842900   -0.133500    2.316500
C     -1.256800   -1.028200    0.025100
O     -2.644300   -0.983700    0.316500
C     -3.488800   -0.209200   -0.362800
N     -3.162600    0.749600   -1.128500
H     -1.664500    1.528500   -0.422100
H      0.442500    0.137500   -0.805000
H      0.537700   -1.335700    1.344400
H     -1.065600    0.782400    2.084900
H     -1.020500   -1.871800   -0.617600
H     -4.511900   -0.521400   -0.136400
H     -3.986300    1.195600   -1.522500
