18
gdb_5960
C      0.093600    1.572400    0.016200
C      0.012300    0.034500    0.033200
N      0.735100   -0.458400    1.215200
C     -1.445100   -0.482800    0.076300
C     -2.244200   -0.040800    1.299800
O     -3.494000   -0.712000    1.223600
C      0.629900   -0.475600   -1.219800
N      1.142200   -0.893900   -2.168600
H      1.129900    1.899400   -0.110200
H     -0.493700    1.984500   -0.807900
H     -0.279000    1.971100    0.961700
H      0.760700   -1.474700    1.207000
H      1.701700   -0.145800    1.186300
H     -1.966100   -0.164600   -0.832100
H     -1.432500   -1.578600    0.059300
H     -1.695800   -0.300800    2.214700
H     -2.384400    1.050700    1.294100
H     -4.012000   -0.467400    1.995800
