18
gdb_16375
O      0.562400    0.807100   -0.808300
C      0.171800   -0.272500    0.003500
C      0.142000   -0.099000    1.550900
C     -1.198400   -0.891100    1.584700
O     -2.239400   -0.457900    2.424800
C     -1.311400   -0.673900    0.066500
C     -2.424900    0.089200   -0.599900
C     -2.169000   -1.359700   -0.945000
H      0.027300    1.568800   -0.559900
H      0.809100   -1.108200   -0.301300
H      0.984700   -0.477000    2.133200
H     -0.026100    0.952000    1.816400
H     -1.043600   -1.944700    1.836700
H     -2.397600    0.473900    2.238300
H     -3.307200    0.319900   -0.010900
H     -2.157300    0.839100   -1.337900
H     -1.734100   -1.579300   -1.915200
H     -2.882000   -2.097600   -0.590500
