12
gdb_23625
F      0.055100    0.068200    0.002800
C     -0.057200    1.389000    0.011400
N     -1.195000    1.940700    0.029900
C     -1.260300    3.359200    0.038500
N     -2.364900    4.002400    0.057000
C      0.020900    4.071300    0.025000
C      1.177100    3.394000    0.005600
N      1.157600    2.003400   -0.001700
H     -3.138200    3.334500    0.063900
H      0.004300    5.152300    0.031100
H      2.157900    3.849800   -0.005200
H      1.998600    1.451200   -0.016100
