15
gdb_18751
O      0.038500    1.375100    0.640900
C      0.035000    0.080900    0.089300
C      0.409100   -0.990900    1.136900
N     -0.917700   -1.680400    1.005700
C     -1.933500   -1.172400    1.985300
C     -2.417900   -0.138900    0.952500
O     -3.287100    0.677800    0.899900
C     -1.345200   -0.641400   -0.022200
H     -0.358100    1.984500    0.008400
H      0.618100    0.033400   -0.839300
H      1.234500   -1.646800    0.849700
H      0.610000   -0.572600    2.128000
H     -2.685000   -1.927900    2.240400
H     -1.526900   -0.753800    2.912800
H     -1.674700   -0.976300   -1.009400
