17
gdb_10745
C     -0.111700    1.594000    0.044200
C      0.050300    0.064400   -0.014100
O      0.835800   -0.393200    1.094400
C     -1.268800   -0.587300    0.009800
C     -2.351800   -1.106300    0.064400
C      0.804400   -0.338700   -1.284000
C      2.285400   -0.369500   -1.295100
N      1.502900   -1.621300   -1.354100
H      0.876900    2.058300    0.075600
H     -0.652900    1.961700   -0.832400
H     -0.672100    1.885500    0.937200
H      0.254800   -0.459200    1.858600
H     -3.304200   -1.575700    0.099600
H      0.271400   -0.066300   -2.191600
H      2.822300   -0.118500   -2.205500
H      2.801700   -0.134800   -0.370100
H      1.495800   -2.030300   -0.421200
