22
gdb_13500
C     -0.694800    1.489400    0.656200
C     -0.268100    0.076700    0.227500
C      0.453800    0.122400   -1.127100
C      0.605000   -0.563500    1.307200
C      0.006300   -0.796900    2.710300
O      0.441000   -2.169100    2.723100
C      0.883000   -2.099600    1.343600
C      0.082500   -3.046300    0.465100
H      0.178900    2.139100    0.786900
H     -1.339600    1.949800   -0.099500
H     -1.246300    1.477800    1.601800
H     -1.179200   -0.526100    0.113100
H      1.359500    0.737400   -1.062900
H      0.752200   -0.873400   -1.467600
H     -0.188600    0.559600   -1.898500
H      1.546600   -0.006700    1.370000
H      0.437400   -0.218200    3.535600
H     -1.089600   -0.716400    2.760800
H      1.949600   -2.352200    1.273700
H     -0.985000   -2.809100    0.478200
H      0.434300   -3.027200   -0.571400
H      0.202600   -4.066800    0.842600
