14
gdb_21719
N     -0.302600    0.859600    0.080600
H     -0.316300   -0.842200    1.040500
H      0.662100    0.924500   -0.232900
H     -0.884900    1.110200   -0.711500
C     -0.526000    1.801300    1.206200
C      0.022900    1.181500    2.450800
C      0.164600   -0.172900    2.680000
O     -0.090000   -1.238100    1.915300
N      0.671200   -0.251900    3.926900
N      0.842000    0.993000    4.462300
N      0.451800    1.843900    3.560600
H     -0.081200    2.792500    1.047000
H     -1.610300    1.951200    1.287700
H      0.924500   -1.072100    4.453100
