17
gdb_5320
C      0.438300    1.590900   -0.264500
C      0.042000    0.146700    0.065000
C      0.220200   -0.781700   -1.150500
C      0.790000   -0.386000    1.251700
C      1.797500    0.157500    1.979300
O      2.149600   -0.727600    2.965100
C      1.320000   -1.775500    2.774800
N      0.497700   -1.643400    1.789000
H      1.495500    1.654100   -0.546900
H     -0.150700    1.966900   -1.106200
H      0.273600    2.258200    0.587400
H     -1.024000    0.134100    0.331400
H      1.263200   -0.784600   -1.486000
H     -0.057500   -1.807300   -0.896500
H     -0.404600   -0.447100   -1.984900
H      2.345400    1.082400    1.953000
H      1.423200   -2.606000    3.455700
