19
gdb_13351
O      0.408000   -0.440300    0.793100
C      0.081600    0.659900    0.399400
N      0.912200    1.576700   -0.164700
C      2.332000    1.362700   -0.375400
C      2.778800    1.535900   -1.843300
C      4.297000    1.848600   -1.776600
C      4.615800    2.111900   -0.275400
C      3.250200    2.328600    0.393500
H     -0.959200    1.037300    0.461200
H      0.515100    2.459500   -0.449000
H      2.521500    0.339100   -0.041500
H      2.543100    0.657400   -2.449100
H      2.233400    2.380000   -2.283600
H      4.896400    1.020700   -2.164100
H      4.538500    2.720600   -2.390700
H      5.101100    1.233500    0.163700
H      5.296500    2.954700   -0.131300
H      2.904100    3.360000    0.238800
H      3.253100    2.140300    1.470300
