14
gdb_5599
N     -0.563600    0.658400   -0.930100
H     -0.098600    0.062100   -1.609100
H     -1.428400    0.963200   -1.368400
H     -0.829700    0.058000   -0.151400
C      0.893600    2.064800    1.746900
C      0.599800    1.337000    2.828000
C     -0.237900    0.104000    2.846300
O     -0.820100   -0.518900    2.008000
O     -0.249600   -0.283500    4.193300
C      0.510200    0.651900    4.842400
N      1.022900    1.593600    4.151200
H      1.515100    2.947400    1.849600
H      0.518900    1.786100    0.763100
H      0.609700    0.504200    5.909800
