15
gdb_11845
N     -0.817900   -0.734200   -0.941000
C     -0.408400    0.236400   -0.464000
C      0.116300    1.443900    0.146800
C      0.019400    1.574200    1.706600
C      1.452800    2.110000    1.678900
C      1.993600    3.315600    2.308100
O      2.377100    1.996400    2.732800
C      1.673900    1.588600    0.257000
H     -0.323000    2.314600   -0.345900
H     -0.770400    2.216400    2.099400
H     -0.032000    0.595400    2.189500
H      2.773100    3.887000    1.806000
H      1.387800    3.875000    3.019700
H      2.168900    0.614500    0.261100
H      2.160700    2.241900   -0.468700
