17
gdb_8222
C      0.006000    1.514600    0.064600
C      0.015200   -0.004600    0.126100
O      0.143800   -0.611300    1.172300
N     -0.149500   -0.634500   -1.082400
C     -0.198300   -2.062500   -1.217900
C     -1.366600   -2.697400   -2.010300
O     -0.447700   -3.448200   -2.827300
C      0.686500   -2.738800   -2.292500
H      0.096500    1.914700   -0.948800
H     -0.927500    1.880300    0.503200
H      0.826200    1.893500    0.677600
H     -0.252700   -0.071700   -1.911600
H     -0.069400   -2.474600   -0.218200
H     -2.055200   -3.343700   -1.455300
H     -1.949400   -1.972700   -2.598400
H      1.117300   -2.034700   -3.019900
H      1.473200   -3.415000   -1.940400
