18
gdb_15060
O      0.023000    1.375500    0.081800
C     -0.061800   -0.031100    0.128200
C     -1.508100   -0.550000   -0.062700
C     -2.035500   -0.055600   -1.335800
C     -2.408800    0.375400   -2.395500
C     -1.570800   -2.067700    0.030700
C     -1.638800   -2.732800    1.383000
C     -2.836600   -2.756300    0.465400
H     -0.350500    1.652600   -0.763800
H      0.587400   -0.505800   -0.624800
H      0.294300   -0.334800    1.116900
H     -2.112900   -0.122200    0.748800
H     -2.770700    0.740200   -3.325100
H     -0.985800   -2.576600   -0.730300
H     -1.082000   -3.650700    1.533900
H     -1.687500   -2.095100    2.259900
H     -3.686500   -2.134100    0.725700
H     -3.102800   -3.691000   -0.014900
