15
gdb_9620
O     -0.135700    1.435400   -0.263000
C      0.017700    0.060400    0.082500
C     -1.373000   -0.524300    0.028600
O     -2.278000    0.143200    0.850000
C     -1.890100   -1.145500   -1.236900
C     -1.582400   -2.021600   -0.018300
C     -0.464200   -2.920800   -0.034700
N      0.447000   -3.634300   -0.049800
H      0.648600    1.912200    0.022500
H      0.690100   -0.461800   -0.610300
H      0.415900   -0.049800    1.100600
H     -2.126900    1.083600    0.682500
H     -2.940000   -1.009400   -1.464800
H     -1.226000   -1.228800   -2.089100
H     -2.439600   -2.369200    0.547800
