17
gdb_19263
C     -0.135000    1.536900    0.017000
C      0.088900    0.023700    0.121500
C      0.687300   -0.557700   -1.158800
C      0.849000   -2.067800   -1.365100
C     -0.440900   -2.749100   -1.538400
N      0.127800   -2.025300   -2.718900
C     -0.149800   -0.619400   -2.453800
O     -0.767400    0.158800   -3.111400
H      0.812500    2.065700   -0.133800
H     -0.786500    1.776400   -0.828000
H     -0.594600    1.928300    0.929200
H      0.761000   -0.202200    0.958800
H     -0.861000   -0.474600    0.346900
H      1.626800   -0.042900   -1.397200
H      1.784000   -2.608500   -1.281500
H     -0.440800   -3.824700   -1.681000
H     -1.342900   -2.357200   -1.076200
