14
gdb_2871
N      0.062200   -1.122600   -0.296900
C      0.002100    0.026800   -0.163000
C     -0.027300    1.437900    0.004000
C     -1.125400    2.204200   -0.045800
C     -0.812200    3.651600    0.221900
C      0.734900    3.707800    0.126700
C      1.219700    2.248600    0.319200
H     -2.127600    1.831000   -0.219800
H     -1.306400    4.326800   -0.484800
H     -1.176900    3.934500    1.219700
H      1.023500    4.057300   -0.868900
H      1.177100    4.393500    0.852400
H      1.544900    2.049900    1.348400
H      2.061200    1.990400   -0.330100
