16
gdb_17093
N     -0.061100   -1.144500   -0.114100
C     -0.016500    0.010200   -0.062700
C      0.044000    1.462400    0.021400
C     -0.394100    2.054600    1.431300
N      0.815000    2.796700    1.861100
C      1.196600    3.467400    0.554900
C      1.482000    2.038500    0.032600
C      1.891100    1.786500    1.504900
H     -0.550600    1.881000   -0.795700
H     -1.245000    2.732100    1.338100
H     -0.638200    1.272000    2.151000
H      0.405600    4.061800    0.087700
H      2.095200    4.071800    0.690700
H      2.114400    1.813000   -0.826400
H      2.875600    2.182700    1.759300
H      1.757700    0.789700    1.933100
