14
gdb_2920
C     -0.042100    1.441400    0.030000
N     -0.029600   -0.007800    0.147900
C     -1.107700   -0.648500    0.122100
C     -1.257900   -2.154300    0.205600
O     -2.643100   -2.341600    0.462100
C     -3.283200   -1.223100   -0.087700
O     -2.375300   -0.129100    0.015000
H      0.637200    1.737400   -0.776800
H     -1.031400    1.870600   -0.164200
H      0.354400    1.878500    0.953600
H     -0.951700   -2.626000   -0.740600
H     -0.676600   -2.585500    1.021700
H     -3.533600   -1.375300   -1.150800
H     -4.184200   -1.000100    0.489700
