16
gdb_11808
O      0.525300    0.815200   -0.729500
C      0.149600   -0.340500   -0.044400
C      0.080200   -0.327100    1.497500
O      0.637100    0.337200    2.323500
C     -1.193100   -1.198000    1.498300
C     -1.330100   -0.805400    0.017200
C     -2.454700   -0.018200   -0.585800
C     -2.142200   -1.416400   -1.077500
H      0.312600    1.574200   -0.174500
H      0.790600   -1.158200   -0.399600
H     -0.974300   -2.259900    1.656000
H     -1.974900   -0.885500    2.194600
H     -3.355700    0.130400    0.000400
H     -2.185200    0.812900   -1.229700
H     -1.682000   -1.520300   -2.055300
H     -2.832600   -2.213200   -0.819800
