19
gdb_13857
C     -0.042100    1.475700    0.125500
C      0.009700   -0.043100    0.048300
O      1.060800   -0.663400    0.098600
N     -1.188200   -0.681800   -0.085000
C     -2.514200   -0.064400   -0.146600
C     -3.429500   -1.227000   -0.562400
C     -2.737000   -2.454300    0.052900
C     -1.245800   -2.147000   -0.135600
H      0.968700    1.838800    0.308500
H     -0.411300    1.905700   -0.812000
H     -0.704300    1.820400    0.926400
H     -2.812400    0.337800    0.832900
H     -2.541500    0.762800   -0.862600
H     -4.458300   -1.088400   -0.222500
H     -3.445700   -1.312600   -1.654300
H     -2.974800   -2.523600    1.120200
H     -3.033400   -3.395300   -0.415700
H     -0.873600   -2.510600   -1.102400
H     -0.603100   -2.576000    0.636600
