18
gdb_14883
C      0.089000   -1.225400    0.003700
C     -0.012900   -0.024300    0.002900
C     -0.064200    1.398800    0.001000
C     -1.237000    2.054200    0.020900
C     -1.363500    3.551900    0.054900
C     -0.037900    4.246900    0.396100
C      1.120100    3.609800   -0.379700
C      1.270800    2.126300   -0.019600
H      0.159200   -2.284600    0.006000
H     -2.157900    1.477600    0.013300
H     -1.734400    3.903200   -0.920600
H     -2.141500    3.834800    0.775500
H     -0.107600    5.318300    0.181400
H      0.154200    4.151500    1.472600
H      0.927900    3.704000   -1.456500
H      2.058500    4.137700   -0.180000
H      1.748000    2.018600    0.964500
H      1.939200    1.624500   -0.727900
