17
gdb_3473
C     -0.072200    1.553100   -0.046200
C      0.010500    0.064200    0.008800
C      0.034000   -1.009700   -1.055000
C      1.299000   -1.639900   -0.480200
C      0.908100   -0.947700    0.853800
C     -0.397300   -1.668500    1.287300
C     -1.033900   -1.027800    0.057700
H      0.881300    2.002000   -0.349600
H     -0.831000    1.871100   -0.770100
H     -0.344300    1.981100    0.926100
H     -0.256900   -0.913000   -2.094100
H      1.396400   -2.732400   -0.471200
H      2.197700   -1.197100   -0.919500
H      1.666900   -0.678400    1.586500
H     -0.366600   -2.762200    1.365900
H     -0.806400   -1.247800    2.210500
H     -2.085500   -0.944000   -0.188800
