12
gdb_2138
C     -0.046500    1.562500   -0.009500
C      0.038600    0.033900   -0.027200
N      0.837000   -0.484800   -1.144000
C      1.748500   -1.181600   -0.610000
O      1.785700   -1.294100    0.759700
C      0.712000   -0.528900    1.224400
O      0.468700   -0.402200    2.381600
H      0.952400    2.005700    0.024500
H     -0.551100    1.916000   -0.911000
H     -0.605200    1.889900    0.870800
H     -0.974500   -0.382900   -0.089900
H      2.533200   -1.722500   -1.124900
