20
gdb_6866
C     -0.035300    1.573100    0.008000
C      0.010300    0.050100   -0.000500
O     -1.342400   -0.407700    0.063100
C      0.694500   -0.497500   -1.272700
C      0.809200   -2.028100   -1.215600
C      1.422300   -2.469700    0.114900
O      0.717000   -1.919900    1.224700
C      0.761100   -0.498500    1.222400
H      0.970900    2.000200   -0.047900
H     -0.611000    1.934500   -0.849300
H     -0.522200    1.935900    0.918000
H     -1.309200   -1.295000    0.442000
H      0.120600   -0.184900   -2.151000
H      1.694900   -0.053200   -1.360500
H     -0.187300   -2.473300   -1.316900
H      1.414900   -2.406900   -2.046300
H      1.381100   -3.555800    0.237200
H      2.480600   -2.161700    0.166600
H      1.805000   -0.145200    1.231800
H      0.270600   -0.173800    2.144900
