16
gdb_16146
O     -0.638700    0.774500    0.555700
C      0.332600    0.880000   -0.151200
C      1.390400    1.905300    0.038800
C      1.473900    2.775800    1.274500
C      2.488900    3.877700    0.886000
C      2.370900    4.026900   -0.649800
C      1.942000    2.651100   -1.122700
O      2.667000    1.572100   -0.546600
H      0.516700    0.207900   -1.018100
H      0.476000    3.181400    1.471700
H      1.777100    2.213900    2.162100
H      2.306800    4.817500    1.411500
H      3.498200    3.548300    1.141600
H      1.591200    4.746000   -0.928600
H      3.303700    4.355900   -1.118000
H      1.594200    2.487700   -2.140600
