22
gdb_14998
C      0.097000    1.569900    0.040600
C      0.007400    0.040500    0.008800
C     -1.423200   -0.519100   -0.020600
C     -2.199600   -0.143100   -1.295000
C     -3.575500   -0.814800   -1.313900
O     -3.483500   -2.222800   -1.187600
C     -2.855500   -2.604700    0.023900
C     -1.433400   -2.050300    0.128500
H      1.138000    1.899100    0.117300
H     -0.323200    2.024200   -0.862100
H     -0.444400    1.979900    0.901000
H      0.557300   -0.342000   -0.862100
H      0.520100   -0.365700    0.890700
H     -1.968700   -0.097000    0.838900
H     -2.328600    0.941900   -1.375200
H     -1.632500   -0.470000   -2.176800
H     -4.199900   -0.404200   -0.499900
H     -4.094400   -0.626600   -2.258600
H     -3.455000   -2.257100    0.884500
H     -2.856900   -3.698900    0.037200
H     -0.819500   -2.499000   -0.663700
H     -0.991800   -2.347700    1.087800
