16
gdb_17457
O     -0.032200    1.397500    0.049000
C     -0.092000    0.003500    0.069600
C     -0.461400   -0.809400    1.285900
C     -1.526200   -0.112000    2.086900
C     -2.858600   -0.849700    2.031500
C     -2.420400   -0.067200    0.834500
O     -3.106900    1.000700    0.258800
C     -1.375000   -0.770300    0.018800
H     -0.935500    1.733300    0.015000
H      0.717400   -0.427700   -0.516100
H      0.132600   -1.654700    1.616900
H     -1.354700    0.680900    2.805400
H     -2.903800   -1.936300    2.017900
H     -3.646600   -0.385000    2.621800
H     -3.837000    1.257100    0.830700
H     -1.569400   -1.555500   -0.703600
