14
gdb_14468
O     -0.069100    1.369100    0.074500
C      0.058100   -0.006500    0.060000
C      1.068200   -0.806800    0.878500
C      0.510800   -2.167600    0.412400
O     -0.874800   -2.084600    0.737200
C     -1.169600   -0.898800    0.023500
C     -0.213500   -0.895600   -1.155600
O      0.555500   -2.076100   -1.011900
H      0.665600    1.747700   -0.422000
H      2.104900   -0.658100    0.566800
H      0.960500   -0.659000    1.954700
H      0.946000   -3.099200    0.762400
H     -2.199100   -0.574100    0.031200
H     -0.424700   -0.578900   -2.166200
