15
gdb_3419
O      0.048500    0.008800    0.024400
C      0.008600    1.212400   -0.040600
C     -1.272000    2.062200   -0.137500
C     -0.839900    3.376700   -0.819700
C      0.666400    3.488700   -0.574600
C      1.136300    3.331200    0.832200
C      1.183600    2.133200   -0.113300
H     -2.041300    1.511600   -0.681600
H     -1.658900    2.226800    0.875000
H     -1.025500    3.316000   -1.897200
H     -1.384300    4.249900   -0.446100
H      1.257300    4.092300   -1.253900
H      2.099700    3.752600    1.096100
H      0.416400    3.329300    1.644500
H      2.144900    1.722800   -0.393700
