17
gdb_7961
C      0.302200    1.390200   -0.399800
C     -0.120400    0.055500    0.200700
O     -0.069700   -0.969800   -0.807800
C      1.071900   -1.684000   -0.661200
N      1.460000   -2.519300   -1.517300
O      1.692300   -1.353700    0.508100
C      0.801200   -0.534800    1.288500
C      1.600900    0.426300    2.145700
H      1.340600    1.359900   -0.742300
H     -0.333700    1.618600   -1.258500
H      0.197800    2.197500    0.331200
H     -1.155200    0.107000    0.549700
H      2.309800   -2.976000   -1.194400
H      0.211900   -1.203300    1.930600
H      2.225200    1.082000    1.534800
H      0.928500    1.042900    2.750400
H      2.249900   -0.132400    2.824700
