16
gdb_2074
O      0.008900   -0.082900   -0.042500
C     -0.019400    1.126000   -0.034800
C     -1.316100    1.926400   -0.021500
C     -1.290900    3.077700   -1.047000
C      0.009200    3.886200   -0.924500
N      1.219500    3.069100   -1.029800
C      1.250000    1.981100   -0.044300
H     -2.154400    1.242900   -0.177600
H     -1.418200    2.352100    0.987900
H     -1.359400    2.662900   -2.061400
H     -2.165800    3.724800   -0.911700
H      0.050700    4.664900   -1.693100
H      0.036700    4.398300    0.047700
H      1.274500    2.670300   -1.962900
H      1.371800    2.428100    0.954000
H      2.111500    1.333700   -0.224600
