19
gdb_1792
C      0.205900    1.573500    0.165700
C     -0.145100    0.100100   -0.076500
C      0.606900   -0.500600   -1.249500
O      0.333000    0.127500   -2.482000
C      2.004600   -1.054100   -1.070500
C      0.840000   -1.977400   -1.391000
C      0.350300   -3.011500   -0.402000
H      1.276700    1.698600    0.361300
H     -0.056100    2.190400   -0.700700
H     -0.341400    1.973000    1.024400
H      0.067800   -0.476200    0.829400
H     -1.221600    0.007000   -0.266700
H      0.769800    0.985900   -2.478900
H      2.728500   -0.857500   -1.853800
H      2.418100   -1.091000   -0.066600
H      0.804700   -2.298500   -2.428500
H      0.446700   -2.670400    0.632900
H     -0.702300   -3.263500   -0.573000
H      0.931900   -3.935400   -0.493800
