16
gdb_18932
O     -0.081500    1.409700   -0.025100
C     -0.009300    0.000500   -0.068800
C     -1.385300   -0.632300   -0.346600
C     -1.787100    0.044900   -1.684900
C     -0.619900   -0.769200   -2.269900
C     -0.841000   -1.867900   -1.210900
O      0.564000   -2.041400   -0.968800
C      0.639900   -0.629200   -1.329800
H      0.804000    1.746100    0.142700
H      0.468800   -0.411200    0.827900
H     -2.079600   -0.742900    0.483500
H     -2.741100   -0.332600   -2.064000
H     -1.766000    1.133200   -1.725800
H     -0.453300   -0.965800   -3.327300
H     -1.426600   -2.780400   -1.309600
H      1.625200   -0.301500   -1.661700
