14
gdb_20393
C      0.051200    1.373600   -0.171200
C      1.496200    1.870900    0.194800
C      2.081000    0.556200    0.601300
C      1.102000   -0.390900    0.710900
O     -0.151000    0.051500    0.398000
C      1.724500   -1.561600    1.171800
N      3.036200   -1.334400    1.339200
N      3.230200   -0.040900    0.998500
H     -0.736100    2.025100    0.213000
H     -0.054400    1.291700   -1.259000
H      1.973400    2.349000   -0.666100
H      1.486600    2.600600    1.014500
H      1.315400   -2.535700    1.387700
H      4.163900    0.329500    1.033400
