17
gdb_2578
C     -0.568000    0.735900   -0.524400
C     -0.356800   -0.631000    0.141100
C      0.737300   -0.651200    1.193800
C      0.541500    0.170800    2.458700
O      0.712700    1.557500    2.219800
C      1.690300   -1.771400    1.236600
O      2.080600   -0.513900    0.677900
H      0.352200    1.062900   -1.018500
H     -1.353700    0.672100   -1.283300
H     -0.844800    1.500600    0.203600
H     -1.289800   -0.968800    0.610700
H     -0.107900   -1.372400   -0.626300
H     -0.475600    0.044500    2.844600
H      1.240000   -0.182500    3.232100
H      1.570500    1.649100    1.787800
H      2.178800   -2.038800    2.172800
H      1.590600   -2.585700    0.520300
