17
gdb_15610
C     -0.004600    1.401200    0.032800
N     -0.003100   -0.053100   -0.011100
C      0.562200   -0.675500    0.932400
O      1.182400   -0.081700    2.008300
C      1.705900   -1.098200    2.867400
C      1.339500   -2.391100    2.201200
C      0.671700   -2.139300    1.071700
C      0.094400   -3.069600    0.059100
H      1.014000    1.812400    0.034500
H     -0.530200    1.787400   -0.843900
H     -0.504400    1.784200    0.932800
H      2.790900   -0.957400    2.968600
H      1.261800   -0.986500    3.866100
H      1.596900   -3.360200    2.608200
H      0.278600   -4.114000    0.321400
H     -0.984800   -2.910400   -0.034200
H      0.519900   -2.869100   -0.929500
