17
gdb_15525
N      0.086800    1.327100    0.257500
C     -0.005800   -0.008700    0.007300
C     -1.110600   -0.810400   -0.021600
C     -0.729300   -2.245400   -0.321400
C      0.801200   -2.264100   -0.093100
C      1.252600   -0.797600   -0.274600
C     -2.474300   -0.384300    0.156000
O     -3.450200   -1.111900    0.093100
H      0.937300    1.802400    0.007400
H     -0.744100    1.895200    0.242200
H     -1.260100   -2.956400    0.318200
H     -0.987600   -2.513000   -1.355000
H      1.015200   -2.579700    0.932800
H      1.328000   -2.949500   -0.761300
H      1.584400   -0.594400   -1.303300
H      2.078900   -0.509400    0.385300
H     -2.612100    0.705100    0.370500
