12
gdb_11696
O      0.054900    0.080300   -0.593200
C      0.137800    1.026900    0.144200
C      1.292100    1.961700    0.181500
C      1.679600    3.001700    1.247300
C      2.091300    3.927100    0.061100
O      2.376600    5.080400   -0.027600
C      1.754700    2.836400   -0.958700
O      2.472200    1.673800   -0.547300
H     -0.666200    1.290700    0.865700
H      0.843100    3.441300    1.798700
H      2.462400    2.684100    1.937700
H      1.419500    2.887900   -1.988500
