18
gdb_8452
C     -0.019700    1.468500    0.075600
C     -0.004500   -0.016300   -0.008900
C     -0.063100   -0.874400   -1.030500
C      0.004300   -2.243400   -0.316100
C      0.161500   -3.516100   -1.098100
C     -1.029400   -2.022800    0.838700
C      0.091000   -1.003100    1.181500
O      1.058400   -1.981200    0.687100
H      0.890000    1.848500    0.558000
H     -0.094800    1.926400   -0.914700
H     -0.864100    1.827100    0.678600
H     -0.137600   -0.700700   -2.095000
H      1.076300   -3.486000   -1.698500
H      0.216700   -4.379300   -0.429600
H     -0.687600   -3.654000   -1.775500
H     -2.026000   -1.651900    0.588600
H     -1.064200   -2.863400    1.537300
H      0.293500   -0.628400    2.184900
