18
gdb_14130
C      0.046300    1.454100   -0.218500
C      0.029800   -0.025000    0.169100
O      0.747500   -0.269600    1.376000
C     -1.373800   -0.560100    0.268900
C     -2.425100   -0.323500    1.373600
C     -3.040100   -1.723100    1.015100
C     -1.958700   -1.870300   -0.062400
O     -2.098700   -0.751600   -0.953900
H      1.075900    1.813700   -0.294500
H     -0.455600    1.605000   -1.178400
H     -0.476900    2.059700    0.532400
H      0.548900   -0.606100   -0.601300
H      0.458600    0.380600    2.025400
H     -1.996900   -0.309100    2.378800
H     -3.065000    0.550200    1.230300
H     -2.939500   -2.444500    1.829000
H     -4.067100   -1.729100    0.643000
H     -1.505300   -2.767900   -0.467900
