12
gdb_542
O     -0.578600    1.379000   -0.062700
C     -0.141800    0.036000    0.020400
C     -1.315300   -0.936500   -0.017900
O     -2.006400   -0.797800   -1.264500
C     -3.164700   -0.105700   -1.268800
O     -3.746300    0.164700   -2.275700
H     -0.787200    1.564800   -0.983800
H      0.568800   -0.212400   -0.780000
H      0.379800   -0.074900    0.977500
H     -0.973500   -1.973800    0.048000
H     -1.998600   -0.733000    0.815700
H     -3.506800    0.164600   -0.252100
