12
gdb_3795
C      0.029200    1.425800    0.134700
N     -0.045300    0.017800   -0.220300
C     -1.223600   -0.667400   -0.076600
N     -1.281800   -1.971900    0.064500
O     -2.627700   -2.274400    0.105900
N     -3.391500   -1.158200    0.006700
C     -2.561600   -0.160000   -0.105200
H      1.038400    1.785100   -0.075400
H     -0.659900    2.007500   -0.485400
H     -0.200800    1.626900    1.191200
H      0.765200   -0.534200    0.018900
H     -2.919800    0.852300   -0.200300
