18
gdb_16662
C      0.008000    1.575700    0.002000
C      0.079500    0.049200    0.012800
C      0.818800   -0.576700   -1.157700
O      2.255600   -0.575200   -0.997700
C      1.519600   -1.782700   -0.703200
C      1.260600   -1.970900    0.778000
C      0.811700   -0.562500    1.249800
O      1.914100    0.218800    1.674000
H      1.007600    2.015300    0.015000
H     -0.516800    1.934600   -0.889400
H     -0.527000    1.947300    0.881100
H     -0.942500   -0.357500   -0.009400
H      0.476600   -0.439200   -2.180700
H      1.740400   -2.621800   -1.357300
H      0.465700   -2.715000    0.912900
H      2.137200   -2.305800    1.339400
H      0.142600   -0.618000    2.112300
H      2.518700    0.242500    0.919600
