15
gdb_11370
O     -0.022400    1.422700    0.006700
C     -0.003600    0.005200    0.002000
C     -1.406900   -0.496000    0.012400
C     -2.524100    0.238800    0.023800
N     -3.669400   -0.576100    0.031200
C     -3.342600   -1.918500    0.024800
O     -4.117600   -2.846300    0.028800
C     -1.800800   -1.952600    0.011800
H      0.886400    1.735100   -0.000000
H      0.525900   -0.384300   -0.886400
H      0.541000   -0.390000    0.878700
H     -2.620600    1.313200    0.027600
H     -4.621200   -0.250800    0.040200
H     -1.457900   -2.504500   -0.871700
H     -1.443200   -2.509300    0.886400
