18
gdb_12736
C     -0.586800    1.376600   -0.005500
C      0.043800   -0.007600   -0.032300
C      1.340900   -0.242900   -0.878400
C      2.039200   -0.855100    0.356400
O      2.796600    0.127100    1.097000
C      1.693900    0.410600    1.983400
C      0.765400   -0.559400    1.224800
O     -0.014200   -1.454600    1.950700
H      0.149800    2.154400    0.222400
H     -1.025400    1.619400   -0.979200
H     -1.384900    1.434500    0.742600
H     -0.713300   -0.750300   -0.302400
H      1.208200   -0.926100   -1.720600
H      1.840800    0.663800   -1.227500
H      2.557700   -1.813100    0.267800
H      1.907700    0.082300    3.012900
H      1.427800    1.474100    2.006000
H      0.500100   -1.779900    2.698000
