20
gdb_12363
C     -0.133800    1.577000   -0.010600
C      0.022000    0.044000    0.024700
C      0.691800   -0.466100   -1.229200
C      1.927600   -0.962700   -1.275200
C      2.823100   -1.087300   -0.070000
C      2.287800   -0.281500    1.123600
C      0.773900   -0.468200    1.266600
O      0.248400    0.204000    2.404600
H      0.838800    2.076900   -0.048800
H     -0.692200    1.878300   -0.902900
H     -0.668700    1.930400    0.872700
H     -0.992100   -0.376700    0.066500
H      0.108000   -0.395600   -2.144800
H      2.331800   -1.310700   -2.223200
H      2.920200   -2.148800    0.203400
H      3.839600   -0.760500   -0.322400
H      2.788800   -0.594600    2.048800
H      2.506700    0.783900    0.990600
H      0.573100   -1.550300    1.347200
H      0.728500   -0.106600    3.178600
