13
gdb_4512
N     -0.005500    1.412500    0.065500
C     -0.073900    0.033600   -0.000700
C     -1.109200   -0.842500   -0.040800
N     -2.470600   -0.583600   -0.087500
N     -0.638300   -2.152600   -0.108500
C      0.649100   -2.000500   -0.115200
O      1.572200   -2.960900   -0.161900
O      1.113400   -0.761300   -0.065200
H      0.497100    1.765600    0.873100
H      0.361900    1.856100   -0.770400
H     -2.701600    0.342200    0.246800
H     -3.016300   -1.298000    0.375200
H      1.092400   -3.798100   -0.202600
