15
gdb_2783
C     -0.217800    1.429100   -0.161200
N      0.184900    0.039900    0.062600
C      0.796400   -0.567200   -1.102700
C      1.047700   -2.086100   -0.995800
O      0.100000   -2.330100   -2.082100
C     -0.184800   -0.986600   -2.190500
N     -0.985200   -0.377200   -2.938100
H      0.614300    2.091100   -0.459100
H     -0.968900    1.458600   -0.954000
H     -0.663400    1.824800    0.755500
H      0.844600   -0.000900    0.833600
H      1.652800   -0.005300   -1.514000
H      2.045500   -2.443300   -1.259900
H      0.698100   -2.536900   -0.064300
H     -1.502300   -1.023200   -3.537600
