11
gdb_9041
O     -0.003000    1.506900    0.057000
C      0.017200    0.111600    0.066500
C      0.700500   -0.429400   -1.204900
O      1.141700    0.330700   -2.024000
C      0.709200   -0.442600    1.234200
C      1.288000   -0.910500    2.185200
C      1.939800   -1.440000    3.262200
N      2.494000   -1.895400    4.175600
H      0.518800    1.769100   -0.720100
H     -1.013100   -0.286800    0.061800
H      0.756200   -1.528600   -1.305900
