18
gdb_16988
C      0.054800    1.578200   -0.150400
O      1.511400    1.532800    0.135100
C      1.198500    0.340900    0.950500
C      1.380500   -1.218300    1.024800
C     -0.236600   -1.145700    1.104500
C      0.009900    0.044600    0.106000
C      0.592500   -0.722200   -1.115600
C      1.607500   -1.671100   -0.415400
H     -0.460700    2.197900    0.592300
H     -0.143000    1.939200   -1.163200
H      0.950400    0.708200    1.954300
H      1.956400   -1.696800    1.819100
H     -0.772600   -2.027300    0.741300
H     -0.600500   -0.851400    2.089100
H     -0.199100   -1.261200   -1.645100
H      1.082700   -0.050600   -1.821400
H      2.636200   -1.501300   -0.744200
H      1.379500   -2.731600   -0.554800
