16
gdb_1518
C      0.267300    1.413900    0.056300
C     -0.325600    0.020800   -0.163500
N      0.211100   -0.642300   -1.341200
C      0.981800   -1.768700   -1.272300
O      1.240900   -2.348200   -0.238400
C      1.544300   -2.210600   -2.630800
O      1.694400   -3.608300   -2.622000
H      1.350800    1.357200    0.195300
H      0.067600    2.073200   -0.796100
H     -0.170200    1.878700    0.945500
H     -0.095900   -0.636500    0.677700
H     -1.418000    0.083900   -0.246600
H      0.017800   -0.242000   -2.245000
H      0.880300   -1.871400   -3.444100
H      2.507500   -1.690100   -2.759900
H      2.270100   -3.851900   -3.351900
