16
gdb_11223
C      0.030200    1.533700    0.046400
C      0.041800    0.040900    0.001500
C     -0.101600   -0.750600   -1.059200
C     -0.053800   -2.210400   -0.658300
N      0.425300   -2.150800    0.731100
C      0.210100   -0.792100    1.250000
C     -1.384600   -2.848700   -0.794900
N     -2.418300   -3.362200   -0.869300
H      0.970800    1.922700    0.454800
H     -0.117800    1.965600   -0.946200
H     -0.770700    1.898900    0.701100
H     -0.263800   -0.441700   -2.083400
H      0.641000   -2.791100   -1.281600
H      0.014900   -2.869400    1.312400
H      1.072100   -0.468400    1.850200
H     -0.679800   -0.695900    1.896100
