24
gdb_6806
C     -0.014800    1.438500    0.064800
O      0.013600    0.035900   -0.020800
C     -1.273100   -0.543500    0.013500
C     -1.131900   -2.057000   -0.078900
C     -2.486800   -2.773200   -0.062300
C     -2.409400   -4.311000   -0.037200
C     -3.804500   -4.913600    0.177100
C     -1.761900   -4.887500   -1.304300
H      1.019000    1.791700    0.031000
H     -0.571300    1.890200   -0.772600
H     -0.476600    1.783700    1.004200
H     -1.795000   -0.261300    0.945400
H     -1.887000   -0.162400   -0.822200
H     -0.576300   -2.291200   -0.993200
H     -0.514100   -2.400100    0.760400
H     -3.052200   -2.440500    0.819200
H     -3.078800   -2.461400   -0.935300
H     -1.784200   -4.597100    0.821500
H     -4.474300   -4.654700   -0.651900
H     -3.760800   -6.006100    0.237500
H     -4.262200   -4.544000    1.100900
H     -1.726100   -5.981300   -1.262200
H     -2.336900   -4.610000   -2.196400
H     -0.737800   -4.529800   -1.443000
