18
gdb_11379
C     -0.005000    1.286300   -0.141100
O     -0.080600   -0.127200    0.060500
C     -1.318200   -0.624100    0.125300
N     -2.408300    0.033600    0.020000
C     -3.474600   -0.965200    0.173100
C     -2.786100   -2.362600    0.049100
C     -2.929500   -2.981200   -1.343100
N     -1.395700   -1.990100    0.364800
H      1.058700    1.525500   -0.168700
H     -0.487300    1.568000   -1.081100
H     -0.498300    1.817800    0.676900
H     -3.954800   -0.849800    1.153600
H     -4.252000   -0.828300   -0.586700
H     -3.163700   -3.061600    0.802000
H     -2.602000   -2.275700   -2.114300
H     -2.335300   -3.897100   -1.437500
H     -3.974800   -3.241300   -1.540700
H     -0.652900   -2.555600   -0.023800
