15
gdb_1237
C     -0.073900    1.576400   -0.043700
C     -0.016000    0.035100   -0.028400
C     -1.422800   -0.589800    0.064700
C      0.713300   -0.476400   -1.185200
C      1.300800   -0.908400   -2.149300
C      2.028200   -1.389400   -3.294000
O      1.799000   -2.429200   -3.869400
H      0.928800    2.009500   -0.079500
H     -0.631000    1.932400   -0.915500
H     -0.577700    1.939900    0.856900
H      0.550700   -0.272000    0.862400
H     -2.027200   -0.308500   -0.802700
H     -1.367700   -1.680400    0.101400
H     -1.930200   -0.235400    0.966900
H      2.845100   -0.716200   -3.626800
