19
gdb_14234
C      0.044700    1.518500   -0.070500
N      0.040000    0.071600    0.091700
C     -0.897100   -0.539200    1.026500
C      0.057100   -1.627900    1.395400
C      1.122800   -0.588200    0.877900
C      1.114900    0.039700    2.305400
C     -0.273700   -0.585200    2.454700
C     -1.093400   -0.733000    3.700700
H      0.923900    1.811000   -0.654800
H     -0.844600    1.811400   -0.639100
H      0.046100    2.092700    0.869300
H     -1.967600   -0.577800    0.858400
H     -0.014600   -2.705300    1.359200
H      2.054200   -0.793800    0.351600
H      1.838900   -0.470900    2.947500
H      1.242700    1.123400    2.406000
H     -1.405800    0.243800    4.088700
H     -2.001200   -1.317000    3.510700
H     -0.535100   -1.242400    4.495100
