14
gdb_12443
O      0.009000    0.156300    0.671200
C     -0.013800    1.144500    0.000200
O     -1.208700    1.674100   -0.348100
C     -1.445800    2.837000   -1.169400
C     -0.728900    4.067900   -0.695000
C      0.601500    4.086000   -0.713800
C      1.337900    2.874800   -1.208400
O      1.156000    1.706600   -0.380700
H     -1.181500    2.600600   -2.208200
H     -2.528700    2.958700   -1.125500
H     -1.312500    4.899700   -0.314800
H      1.172700    4.933500   -0.349800
H      1.050700    2.630600   -2.239300
H      2.418000    3.026000   -1.195300
