12
gdb_3869
N      0.099100    1.427900    0.113600
C      0.008600    0.029100    0.008600
C     -1.042100   -0.829900    0.005600
O     -0.610800   -2.107400   -0.035000
N      0.785700   -2.112300   -0.067400
C      1.139800   -0.848800   -0.038100
N      2.459800   -0.428300   -0.115100
H      0.649900    1.823900   -0.641500
H     -0.808600    1.876000    0.118800
H     -2.111500   -0.690100    0.034200
H      3.115700   -1.186200    0.025500
H      2.655400    0.345000    0.509200
