16
gdb_6267
C      0.591100    0.630800   -0.590600
N     -0.383700   -0.221600    0.078300
C      0.125500   -0.765200    1.329000
C     -1.673300    0.417800    0.214000
C     -2.422600    0.458300   -1.109400
O     -3.110300    1.371700   -1.484100
C     -2.288500   -0.761600   -1.941600
N     -2.251700   -1.696500   -2.621200
H      1.506800    0.062900   -0.775600
H      0.203800    0.963500   -1.558600
H      0.851900    1.528600   -0.000500
H      0.347800    0.010800    2.084300
H     -0.602000   -1.461800    1.755500
H      1.048600   -1.318100    1.133000
H     -2.296200   -0.179400    0.894200
H     -1.648000    1.447300    0.612100
