15
gdb_11388
N      0.463500   -0.015300   -0.532400
H      1.156700   -0.679600   -0.198600
H      0.510000   -0.050600   -1.547300
H     -0.443500   -0.400000   -0.276900
C     -1.276200    2.196400    1.333600
C     -2.346500    1.414800    1.482100
O     -2.415200    0.152400    0.925600
C     -3.645700   -0.421200    1.249300
O     -3.944400   -1.519300    0.880100
C     -4.372600    0.572700    2.062600
C     -3.592000    1.656400    2.193400
H     -1.271100    3.178400    1.789700
H     -0.415600    1.860000    0.763700
H     -5.361800    0.388000    2.451900
H     -3.802700    2.574800    2.723400
