16
gdb_12332
C     -0.007200    1.499900   -0.022700
N      0.012200    0.047000   -0.001300
C      0.093100   -0.667700   -1.193300
C      0.095800   -1.998500   -1.261400
C     -0.001000   -2.836000   -0.022500
N      0.043400   -1.980900    1.156800
C     -0.010300   -0.613600    1.226300
O     -0.058600   -0.021800    2.291500
H      0.904500    1.899200   -0.482400
H     -0.874000    1.871800   -0.581100
H     -0.068700    1.843100    1.008500
H      0.155600   -0.047600   -2.080600
H      0.158800   -2.496800   -2.219500
H     -0.928100   -3.434800   -0.030600
H      0.825900   -3.562300    0.018500
H     -0.002800   -2.410700    2.066400
