16
gdb_3516
C     -0.241000    1.149400   -0.348400
C      1.151200    1.042500    0.173100
N      0.288700   -0.129800    0.109300
C     -0.198900   -0.707500    1.347900
C     -0.766000    0.170100    2.501900
O     -2.101300   -0.314400    2.266500
C     -1.642000   -1.248000    1.265900
H     -0.972400    1.669200    0.266100
H     -0.421400    1.218100   -1.417400
H      1.999600    1.043800   -0.505500
H      1.349500    1.486100    1.147600
H      0.546300   -1.434600    1.679700
H     -0.398200   -0.104900    3.499000
H     -0.695100    1.259200    2.393600
H     -2.132900   -1.096100    0.297900
H     -1.776300   -2.289800    1.582100
