14
gdb_1768
C     -0.041300    1.539100   -0.112200
C     -0.029100    0.047100    0.087500
O      1.203600   -0.650800   -0.109500
C      0.651000   -0.645000    1.212400
C      1.443700    0.053500    2.295700
C      0.088600   -1.925400    1.624300
N     -0.361100   -2.929100    1.979600
H      0.829800    2.023500    0.330900
H     -0.045100    1.763900   -1.183600
H     -0.948100    1.970600    0.323800
H     -0.888800   -0.474800   -0.335900
H      1.846700    0.998400    1.931000
H      0.812000    0.245100    3.168100
H      2.278600   -0.578000    2.612000
