11
gdb_21817
O     -0.042900   -0.050500   -0.000600
C      0.007200    1.146500    0.007800
N      1.193000    1.888900   -0.000100
N      2.451700    1.306900   -0.018400
C      3.261100    2.312600   -0.020200
N      2.615200    3.525000   -0.004200
C      1.240800    3.297300    0.009600
O      0.332700    4.091000    0.025500
H     -0.858300    1.828300    0.022100
H      4.336000    2.216200   -0.032900
H      3.022500    4.444600   -0.002000
