16
gdb_19132
N     -0.193200   -1.158900    0.722000
C     -0.144600   -0.046300    0.408400
C     -0.086800    1.342700   -0.000000
C      0.668300    2.262900    0.909700
N      1.240100    1.871600   -0.380500
C     -1.264700    1.809600   -0.810900
C     -1.138000    3.013200   -1.707000
C     -1.261300    1.637200   -2.309000
H      0.338800    3.295900    0.967000
H      1.091200    1.852400    1.821400
H      1.953600    1.158100   -0.256200
H     -2.214300    1.668200   -0.304000
H     -1.986300    3.685700   -1.765000
H     -0.165900    3.488100   -1.764600
H     -0.368800    1.215000   -2.757200
H     -2.189400    1.354400   -2.791900
