17
gdb_10352
N      0.039200    1.272000    0.195900
C      0.068300   -0.051200   -0.082700
O      1.095700   -0.622300   -0.433300
C     -1.274200   -0.792900    0.046400
C     -1.036200   -2.317400    0.067900
O     -0.419400   -2.785400   -1.104400
C     -2.108200   -0.356700    1.254600
O     -2.593400    0.972300    1.041100
H      0.890400    1.799700    0.092500
H     -0.821300    1.712800    0.487000
H     -1.854500   -0.559700   -0.856500
H     -0.453900   -2.577200    0.968200
H     -2.003600   -2.826300    0.147700
H      0.415000   -2.291600   -1.148700
H     -2.953300   -1.049700    1.370500
H     -1.504200   -0.407800    2.172300
H     -3.062500    1.254000    1.832400
