19
gdb_10345
C     -0.431400    0.858400    0.642400
C     -0.166900   -0.506800    0.004300
C      0.536800   -0.402800   -1.357200
O      1.774700    0.217500   -1.141900
C      2.488200    0.539300   -2.318900
C      0.700700   -1.812000   -1.971400
N     -0.404600   -2.266900   -2.633300
O      1.718300   -2.464000   -1.863900
H      0.503000    1.409900    0.766400
H     -1.100900    1.464000    0.020800
H     -0.899200    0.744900    1.624900
H      0.470400   -1.115200    0.655600
H     -1.106100   -1.056600   -0.126200
H     -0.080400    0.208400   -2.043500
H      2.785200   -0.359800   -2.871000
H      1.896400    1.192000   -2.980500
H      3.385600    1.078300   -2.006800
H     -1.254800   -1.734700   -2.693600
H     -0.400900   -3.212600   -2.979000
