13
gdb_72
C     -0.043800    1.541000   -0.039100
C      0.027700    0.018900    0.047800
C      0.768100   -0.488400    1.280000
C      0.878500   -1.997500    1.423900
O      1.241800    0.266500    2.097900
H      0.958000    1.976900   -0.068200
H     -0.584500    1.853600   -0.936900
H     -0.551700    1.957400    0.834400
H     -0.976900   -0.427100    0.053500
H      0.518500   -0.408100   -0.838100
H      1.399200   -2.426800    0.560500
H      1.420000   -2.244500    2.337800
H     -0.117500   -2.453600    1.451400
