12
gdb_1229
N     -0.003500    1.121700    0.040600
C     -0.278500   -0.206400    0.144100
O      0.479100   -1.019000    0.629800
C     -1.682100   -0.611400   -0.333700
O     -1.695200   -1.949400   -0.788500
C     -1.636800   -2.920800    0.158800
O     -1.561700   -4.074600   -0.128500
H      0.904400    1.442500    0.337100
H     -0.580800    1.750500   -0.490200
H     -2.381200   -0.464100    0.501800
H     -2.025800    0.001700   -1.170300
H     -1.700600   -2.524700    1.186800
