12
gdb_3868
N     -0.083400    1.479500   -0.120600
C     -0.057100    0.072600   -0.049400
C     -1.102700   -0.829000   -0.001600
N     -0.548200   -2.072000   -0.010200
N      0.802700   -2.045900   -0.072700
C      1.090300   -0.754700   -0.092300
O      2.359500   -0.283900   -0.153700
H      0.851200    1.855500   -0.015700
H     -0.675600    1.894400    0.588800
H     -2.169700   -0.678800    0.037800
H     -1.017100   -2.957900    0.032100
H      2.947200   -1.048500   -0.178200
