20
gdb_1363
C      1.859800   -3.888600    1.599100
C      1.036800   -2.804500    0.935300
N      0.085000   -1.948600    1.655300
C     -0.095200   -2.083000    3.091400
C      1.293300   -1.332900    1.085800
C      2.414000   -0.818300    1.971900
C      1.006200   -0.423500   -0.096100
H      2.312800   -3.581300    2.542900
H      1.241400   -4.771000    1.799400
H      2.669100   -4.202200    0.930800
H      0.645400   -3.124900   -0.032100
H      0.803400   -2.332100    3.673700
H     -0.496300   -1.143200    3.485500
H     -0.839300   -2.864400    3.279800
H      3.331900   -0.701100    1.385300
H      2.158300    0.168900    2.374900
H      2.644300   -1.470000    2.815300
H      0.737200    0.583600    0.244300
H      1.884000   -0.332700   -0.746600
H      0.172300   -0.812000   -0.685200
