19
gdb_11590
C      0.170800    1.479700   -0.110900
C     -0.076500   -0.009200    0.061500
O     -0.348900   -0.490600    1.138400
C      0.033500   -0.860200   -1.194700
C     -0.230800   -2.342900   -0.949100
N     -0.179800   -3.079500   -2.207600
C      1.126000   -3.609900   -2.591100
C      0.050700   -4.514700   -2.099600
H      1.169300    1.656900   -0.525700
H     -0.546900    1.904500   -0.821800
H      0.076700    1.984900    0.851000
H     -0.666100   -0.474100   -1.947700
H      1.031600   -0.710700   -1.629800
H      0.486300   -2.729400   -0.204800
H     -1.227900   -2.469700   -0.515700
H      1.368600   -3.560700   -3.648800
H      1.966400   -3.432100   -1.920900
H      0.176000   -4.937300   -1.103800
H     -0.508100   -5.137600   -2.792200
