20
gdb_14206
C     -0.122700    1.443800    0.006200
C      0.017200   -0.049300   -0.023200
C      0.952500   -0.877200   -0.904100
C      0.109700   -2.107600   -0.476000
C      0.411000   -2.259200    1.039300
C     -0.313400   -0.926800    1.204900
C     -1.067600   -1.105000   -0.098200
C     -2.518800   -1.056600   -0.445400
H      0.767100    1.920800    0.434700
H     -0.264200    1.852100   -1.001400
H     -0.982200    1.752600    0.611600
H      0.812100   -0.632900   -1.962200
H      2.025700   -0.895900   -0.674200
H      0.027800   -2.980700   -1.121200
H     -0.156600   -3.079700    1.488400
H      1.463700   -2.337000    1.337800
H     -0.678200   -0.470000    2.117800
H     -2.997300   -0.180600    0.007000
H     -2.675900   -0.994100   -1.529100
H     -3.053200   -1.944100   -0.085600
