17
gdb_1279
C     -0.010500    1.475200    0.088800
C      0.131000   -0.047600    0.014500
C      0.692200   -0.499600   -1.323800
O      0.788500   -1.936200   -1.299900
C      1.272800   -2.512400   -2.419700
C      1.323100   -4.014400   -2.267300
O      1.612700   -1.893800   -3.396500
H      0.956700    1.972700   -0.041300
H     -0.683900    1.852000   -0.688600
H     -0.415100    1.783300    1.056900
H      0.788500   -0.406600    0.814600
H     -0.842400   -0.526700    0.171200
H      0.048600   -0.197700   -2.157400
H      1.685500   -0.077200   -1.511600
H      0.322200   -4.404800   -2.062500
H      1.716200   -4.458700   -3.180900
H      1.956600   -4.284600   -1.417700
