17
gdb_8305
O     -0.045200    1.462700    0.050400
C      0.016000    0.053300   -0.086800
C     -1.382200   -0.498700    0.164600
C     -1.452200   -2.017100    0.079300
C     -2.869700   -2.663900    0.092800
C     -2.506400   -3.234600   -1.300300
O     -3.026700   -3.956000   -2.106800
N     -1.289900   -2.592600   -1.268600
H      0.829300    1.822700   -0.123500
H      0.352800   -0.234700   -1.096500
H      0.725400   -0.389700    0.632400
H     -1.706900   -0.181200    1.162800
H     -2.075100   -0.056300   -0.560100
H     -0.772000   -2.473700    0.810100
H     -3.036700   -3.425800    0.855800
H     -3.701400   -1.956700    0.088800
H     -0.490400   -2.668800   -1.880200
