18
gdb_7171
C     -0.301700    1.229600   -0.602500
O     -0.462300   -0.169100   -0.559100
C     -0.886900   -0.639200    0.699300
C     -1.015700   -2.163500    0.647300
O     -1.330800   -2.663100    1.934500
C     -2.027400   -2.601200   -0.430300
C     -2.132700   -4.046100   -0.576000
C     -2.210700   -5.239000   -0.697900
H      0.029900    1.489900   -1.610400
H     -1.246500    1.754800   -0.390900
H      0.452200    1.574800    0.121700
H     -0.168200   -0.371600    1.489500
H     -1.860800   -0.192200    0.975700
H     -0.036900   -2.587400    0.401000
H     -2.251600   -2.450900    2.123500
H     -3.012300   -2.177700   -0.179600
H     -1.731800   -2.139400   -1.378700
H     -2.280100   -6.292900   -0.804900
