17
gdb_8288
O      0.544100    0.334600   -0.859300
C     -0.171100   -0.366500    0.119500
C      0.134300   -0.139000    1.628400
C     -1.376100   -0.289100    1.909500
C     -1.658600   -0.009300    0.408800
O     -1.640200   -1.644000    2.276100
C     -2.901900   -1.929500    2.651300
N     -3.244700   -3.125700    2.862500
H      0.482200    1.275900   -0.664300
H     -0.071100   -1.423400   -0.137700
H      0.798700   -0.836400    2.140700
H      0.466700    0.887600    1.814700
H     -1.827000    0.386800    2.643300
H     -1.847000    1.056900    0.240000
H     -2.442600   -0.594800   -0.075900
H     -3.539800   -1.040200    2.756800
H     -4.216100   -3.159000    3.165000
