19
gdb_4036
C     -0.097100    1.431100   -0.116100
O     -0.211500    0.029200   -0.189600
C      0.628600   -0.584400   -1.163300
C      2.077500   -0.707100   -0.669500
C      0.025400   -1.940100   -1.459800
C     -0.287800   -2.876600   -0.326800
N     -0.162500   -2.192600   -2.697500
O     -0.673300   -3.485800   -2.895900
H      0.893400    1.759900    0.231000
H     -0.296000    1.905400   -1.089600
H     -0.845400    1.775600    0.602100
H      0.608300   -0.003900   -2.096200
H      2.124700   -1.303200    0.246700
H      2.695000   -1.188200   -1.433600
H      2.506700    0.276800   -0.459700
H     -0.340200   -2.329900    0.615100
H     -1.237000   -3.384400   -0.511800
H      0.478600   -3.656300   -0.244600
H     -0.800100   -3.506900   -3.850200
