17
gdb_13344
N     -0.170900    1.117600   -0.611700
C     -0.093200   -0.065500   -0.179700
O     -1.193300   -0.849300   -0.166700
C     -0.988200   -2.208900    0.236600
C     -2.374500   -2.879400    0.287500
C     -2.345000   -3.877800   -0.894500
C     -1.118900   -3.418900   -1.693600
O     -0.221200   -2.907400   -0.700300
H      0.736300    1.573000   -0.532500
H      0.804400   -0.560000    0.212300
H     -0.432700   -2.219500    1.180400
H     -2.533400   -3.378800    1.244900
H     -3.144200   -2.115300    0.170700
H     -2.197100   -4.899200   -0.533700
H     -3.261900   -3.858700   -1.487300
H     -0.599900   -4.220500   -2.222700
H     -1.378900   -2.628900   -2.410400
