13
gdb_21146
C     -0.016800    1.428400   -0.145500
N      0.005200   -0.025400   -0.150400
C     -1.053300   -0.651100    0.151100
O     -2.226900   -0.001700    0.484400
N     -3.380600   -0.727000    0.813500
C     -3.272600   -2.004900    0.784200
N     -2.157000   -2.779900    0.467400
C     -1.105500   -2.107000    0.167500
H      0.969700    1.801400   -0.426100
H     -0.759100    1.823900   -0.851300
H     -0.277400    1.825600    0.844400
H     -4.179500   -2.541200    1.042700
H     -0.184400   -2.623700   -0.093900
