16
gdb_13570
C     -0.304800    1.480400    0.087500
C     -0.020300   -0.003500    0.092100
C      1.310700   -0.554000   -0.288400
C      0.866900   -0.673100    1.161200
C      1.556700    0.155300    2.182300
O      2.177300    1.172600    1.930200
C      1.441100   -0.328400    3.550300
C      1.345600   -0.738400    4.678200
H      0.566700    2.053300    0.408800
H     -0.576600    1.804100   -0.923200
H     -1.140500    1.725100    0.751700
H     -0.873900   -0.623500   -0.170000
H      1.369300   -1.470500   -0.864500
H      2.110700    0.158700   -0.459900
H      0.529700   -1.640700    1.513700
H      1.270600   -1.084700    5.680400
