15
gdb_18219
O     -0.046800   -0.039700   -0.190300
C      0.014100    1.127900    0.098600
C      1.294800    1.954200    0.044800
C      1.298900    2.897100   -1.152700
C      1.450700    4.174600   -0.795400
C      1.526900    4.305200    0.686900
N      0.277100    3.848900    1.360700
C      1.421000    2.920500    1.227200
H     -0.875900    1.705600    0.420700
H      2.131200    1.247600   -0.002100
H      1.162000    2.529800   -2.163000
H      1.493100    5.018700   -1.472800
H      2.119100    5.079200    1.162100
H      0.267600    4.205100    2.315300
H      1.945000    2.603700    2.121700
