19
gdb_2110
O     -0.073600    1.444700    0.011100
C      0.012900    0.024600    0.007800
C      0.776300   -0.509300    1.226100
C      0.767000   -2.045100    1.269500
C     -0.666900   -2.593400    1.230900
C     -1.438800   -2.049800    0.019700
C     -1.416400   -0.514900   -0.019800
H      0.821000    1.795100    0.070500
H      0.531200   -0.318600   -0.906000
H      1.808400   -0.133600    1.212400
H      0.302100   -0.103300    2.129400
H      1.327000   -2.436700    0.408900
H      1.289700   -2.399300    2.164800
H     -0.653100   -3.689000    1.212400
H     -1.189400   -2.303100    2.152800
H     -0.989000   -2.445000   -0.901800
H     -2.474100   -2.407600    0.035000
H     -1.949400   -0.107800    0.849500
H     -1.928500   -0.136400   -0.910500
