19
gdb_11334
C      0.086000    1.450000   -0.047600
N      0.184000   -0.001000   -0.068200
C      0.540800   -0.616300    0.969800
C      0.702600   -2.114800    1.099900
C      0.615200   -2.346000    2.616800
C      1.320400   -3.593200    3.140500
C      1.199800   -1.023700    3.139100
O      0.839600   -0.025500    2.176300
H      0.897300    1.877100   -0.650200
H     -0.852800    1.748900   -0.526200
H      0.131500    1.892700    0.953800
H     -0.044200   -2.646900    0.510300
H      1.692900   -2.405300    0.724400
H     -0.443900   -2.382300    2.901100
H      2.380100   -3.592800    2.861000
H      1.261400   -3.656100    4.232500
H      0.868000   -4.502000    2.732200
H      0.802200   -0.717100    4.110200
H      2.295600   -1.075800    3.211700
