16
gdb_798
C      0.000300    1.517900   -0.005100
C      0.053200    0.014700   -0.007700
N      0.189700   -0.688400    1.061400
O      0.279900    0.115800    2.196300
C     -0.051200   -0.750500   -1.264600
C      0.001700   -2.253800   -1.267300
N     -0.187700   -0.047400   -2.333800
O     -0.277900   -0.851600   -3.468700
H      0.914900    1.920600    0.441200
H     -0.118600    1.904200   -1.014500
H     -0.828600    1.859000    0.623000
H      0.376500   -0.533900    2.901100
H     -0.913100   -2.656400   -1.713400
H      0.830300   -2.594800   -1.895700
H      0.120900   -2.640100   -0.257900
H     -0.374600   -0.202000   -4.173400
