11
gdb_8997
O      0.186500    0.104600   -0.092700
C      0.320000    1.278000   -0.224600
O      0.637500    2.088900    0.822500
C      0.831900    3.453300    0.542900
C      2.174700    3.711200   -0.133000
O      2.875400    2.850900   -0.591900
C      2.538200    5.138700   -0.210800
N      2.787900    6.266600   -0.259000
H      0.181900    1.832600   -1.171300
H      0.042900    3.871700   -0.101500
H      0.788900    3.992500    1.493900
