14
gdb_19677
N      0.039300   -1.186100   -0.089700
C      0.055700   -0.033300   -0.009300
C      0.032200    1.423800    0.066300
C     -0.151900    2.136700    1.410200
C      1.247500    2.292300    2.008400
N      2.167600    1.569800    1.102100
C      1.381700    2.203000   -0.008000
C      0.763000    3.275000    0.982200
H     -0.676700    1.816400   -0.667400
H     -1.049000    2.183000    2.012300
H      1.412500    2.393200    3.072800
H      3.068200    2.045500    1.143100
H      1.883300    2.364100   -0.958700
H      0.610800    4.345100    0.953300
