13
gdb_19803
N     -0.032200    1.224000    0.074300
C     -0.040900   -0.026100    0.054600
O      1.011100   -0.939700    0.056900
C      0.092800   -2.061300   -0.034900
C     -0.386900   -2.638200    1.331500
O     -0.470700   -1.549800    2.247800
C     -1.544400   -1.721100    1.328900
C     -1.113900   -1.098900   -0.033900
H      0.918800    1.592900    0.128700
H      0.336800   -2.756700   -0.836000
H     -0.246000   -3.631800    1.739900
H     -2.544900   -1.823300    1.730200
H     -1.853000   -1.054100   -0.829300
