14
gdb_16215
O      0.074400    0.034400   -0.181500
C      0.021000    1.223200   -0.017700
C     -1.217500    2.106000    0.107700
O     -0.750500    3.357900    0.588500
C      0.583000    3.562000    0.118200
C      1.197100    2.175600    0.095200
C      2.457700    1.752900    0.726000
O      2.350600    1.899300   -0.687100
H     -1.698200    2.194900   -0.881500
H     -1.948300    1.698500    0.810700
H      0.591000    3.989700   -0.896900
H      1.072900    4.261700    0.798300
H      3.064800    2.500000    1.235300
H      2.550200    0.727300    1.078600
