13
gdb_2606
O      0.171300    1.337100    0.306300
C      0.071400   -0.033800   -0.004200
C     -1.362000   -0.529700   -0.040800
C     -1.683200   -1.956700    0.181200
O     -1.959200   -0.996800    1.183600
C     -2.327800    0.252000   -0.873600
O     -2.003800    1.165600   -1.594600
H     -0.251500    1.811700   -0.420100
H      0.543300   -0.271100   -0.971000
H      0.608200   -0.582400    0.775600
H     -2.551000   -2.406000   -0.300700
H     -0.856600   -2.636500    0.385000
H     -3.386100   -0.066900   -0.762700
