12
gdb_8727
O      0.044500    1.491600   -0.098500
C      0.021900    0.093700   -0.050100
C      0.679700   -0.534200   -1.202500
C      1.230600   -1.042600   -2.141200
C      0.718600   -0.389400    1.245500
O      1.281400    0.418900    1.951700
C      0.645400   -1.794900    1.546700
C      0.542900   -2.967600    1.795900
H      0.665900    1.763800    0.597400
H     -1.021600   -0.255300   -0.005500
H      1.711100   -1.486700   -2.978100
H      0.463300   -4.003800    2.021300
