16
gdb_12755
O      0.002000    1.409300    0.046400
C     -0.014500    0.029700    0.034300
C     -0.351900   -0.779900   -1.181900
C     -1.221100   -0.891300    0.055100
C     -0.540500   -1.807900    1.075200
C      0.700700   -0.831700    1.103000
C      2.018800   -1.354800    0.798100
C      3.103100   -1.793200    0.514900
H      0.725300    1.709000   -0.515800
H     -0.790500   -0.196200   -1.985000
H      0.272500   -1.610300   -1.503400
H     -2.273000   -0.637200    0.033900
H     -1.043500   -1.853800    2.042600
H     -0.324400   -2.823200    0.732500
H      0.716100   -0.284100    2.049900
H      4.063200   -2.179200    0.277200
