16
gdb_7683
C     -0.037100    1.553300   -0.000500
C      0.061300    0.046200   -0.071300
O     -1.074900   -0.608400    0.425700
C      0.672300   -0.733700   -1.170800
C      1.884600   -0.023600   -1.786000
C      2.546900   -0.073600   -0.379000
O      3.653700    0.177800    0.008400
C      1.358600   -0.737200    0.236800
H      0.849800    2.049500   -0.399300
H     -0.914300    1.898600   -0.556900
H     -0.147100    1.875100    1.042100
H     -1.214700   -0.315800    1.333300
H      0.138500   -1.561900   -1.617800
H      2.445200   -0.666200   -2.471400
H      1.732100    0.949800   -2.259100
H      1.345800   -1.478900    1.025700
