17
gdb_9071
C      0.114600    1.555300    0.113900
C     -0.002800    0.031500   -0.086000
C     -1.459100   -0.490400   -0.031600
C     -2.120600   -0.306200    1.343500
C     -3.464100   -1.003900    1.408000
O     -4.498100   -0.473500    1.716600
C      0.608900   -0.358700   -1.361800
N      1.079000   -0.664000   -2.372500
H      1.155500    1.876700    0.033300
H     -0.467200    2.089600   -0.642700
H     -0.255000    1.840400    1.101600
H      0.570200   -0.470500    0.705200
H     -2.048800    0.020400   -0.801300
H     -1.458000   -1.554500   -0.294400
H     -1.481300   -0.760500    2.115700
H     -2.270600    0.745200    1.599700
H     -3.430600   -2.086000    1.139200
