13
gdb_4527
N      0.057700    1.312400   -0.128800
C     -0.038600   -0.057400   -0.059100
N     -1.123500   -0.771600   -0.066500
C     -0.657700   -2.085700   -0.079800
N     -1.551900   -3.153200   -0.151700
C      0.693900   -2.086900   -0.072600
O      1.635300   -3.044900    0.036400
O      1.114300   -0.746600   -0.054600
H      0.862300    1.698900    0.343800
H     -0.806900    1.771100    0.119300
H     -2.437200   -2.912500    0.275700
H     -1.179800   -3.999900    0.259000
H      2.036100   -3.213800   -0.826600
