14
gdb_1041
C      0.120900    1.575300   -0.070500
C     -0.056100    0.053300    0.068800
C      0.584400   -0.509300    1.287600
C      0.145800   -1.142200    2.403800
N      1.223400   -1.440300    3.232600
C      2.243600   -0.980500    2.589400
O      1.950400   -0.399900    1.401800
H      1.180800    1.840900   -0.108800
H     -0.354500    1.935100   -0.987500
H     -0.328200    2.099900    0.778100
H     -1.120100   -0.201500    0.106200
H      0.353200   -0.443000   -0.820600
H     -0.864900   -1.407000    2.671500
H      3.283700   -1.001300    2.874700
