20
gdb_7496
C     -0.014200    1.537600   -0.070700
C     -0.018000    0.020400    0.021800
O      0.798100   -0.482800   -1.023700
C      0.757300   -1.876400   -1.227900
C      1.272200   -2.682600   -0.040000
C     -0.537000   -2.442200   -1.880500
O      0.217100   -2.957300   -2.995700
C      1.401900   -2.247800   -2.578900
H      1.005700    1.921800    0.019900
H     -0.418400    1.865200   -1.032500
H     -0.621200    1.970700    0.730000
H      0.360300   -0.300500    1.003700
H     -1.045200   -0.367000   -0.074300
H      0.613500   -2.594700    0.829500
H      1.329900   -3.742200   -0.305700
H      2.271900   -2.340400    0.246300
H     -1.070800   -3.235400   -1.344200
H     -1.245400   -1.660800   -2.186500
H      1.602000   -1.366300   -3.200100
H      2.285200   -2.895700   -2.552200
