16
gdb_15501
N     -0.141800    1.289100   -0.182400
C     -0.068200    0.035900   -0.039000
C     -1.252900   -0.894000    0.144500
C     -0.646800   -2.157600    0.775000
C      0.763600   -2.206300    0.166600
N      1.096500   -0.787600   -0.015100
C      2.383900   -0.344400   -0.161100
O      2.719600    0.807700   -0.335400
H      0.788000    1.691400   -0.306600
H     -2.030400   -0.416800    0.741300
H     -1.682000   -1.115500   -0.840500
H     -0.575900   -2.040900    1.860900
H     -1.215100   -3.066200    0.568900
H      1.497000   -2.696600    0.812000
H      0.759000   -2.726500   -0.800200
H      3.114900   -1.174000   -0.095100
