18
gdb_12199
C      0.140100    1.557800    0.041300
C      0.046200    0.047300   -0.063400
C      0.695300   -0.679600   -1.269100
C      1.194600   -1.714700   -0.222300
C      2.567400   -2.212000   -0.315400
N      3.650400   -2.606900   -0.398500
N      0.947900   -0.716900    0.831500
C      0.464900   -1.177100    2.115700
H      1.175800    1.886900   -0.082300
H     -0.477000    2.037500   -0.726100
H     -0.214100    1.906000    1.017600
H     -1.003100   -0.277000    0.053400
H      0.039200   -1.058900   -2.051400
H      1.516200   -0.112000   -1.709500
H      0.515100   -2.582200   -0.167900
H      1.237000   -1.777300    2.607400
H      0.252800   -0.316100    2.757000
H     -0.454700   -1.787200    2.040000
