22
gdb_6860
C      0.023600    1.532800    0.010400
C     -0.054100   -0.001900    0.002600
C     -1.539100   -0.415000    0.009400
C      0.666200   -0.548400   -1.254100
C      0.903700   -2.059200   -1.188300
O      1.617300   -2.428900   -0.020500
C      0.917900   -2.071800    1.159700
C      0.681200   -0.561800    1.244600
H      1.063300    1.877600    0.006000
H     -0.473700    1.956800   -0.869500
H     -0.463000    1.947300    0.900800
H     -2.055000   -0.013100   -0.869700
H     -1.679600   -1.499400    0.004400
H     -2.044400   -0.022600    0.898800
H      0.095400   -0.303300   -2.158800
H      1.642100   -0.055600   -1.346100
H     -0.052900   -2.607200   -1.234300
H      1.511900   -2.391300   -2.035200
H     -0.038100   -2.620300    1.211400
H      1.536300   -2.412900    1.995600
H      1.658300   -0.070000    1.330100
H      0.121400   -0.326500    2.158700
