17
gdb_2410
C     -0.156800    1.556000   -0.038300
C      0.037300    0.046200   -0.014000
C      1.220100   -0.654300   -0.767800
C      2.159200   -0.165800    0.371200
C      0.880000   -0.667900    1.098600
C      0.967000   -1.902200    0.141300
O     -0.105800   -2.774900   -0.060600
H      0.763500    2.119400    0.131700
H     -0.562900    1.871900   -1.005700
H     -0.876000    1.859600    0.730700
H     -0.942600   -0.414400   -0.195900
H      1.419800   -0.643300   -1.841000
H      3.071100   -0.747800    0.533100
H      2.371200    0.900800    0.417600
H      0.688200   -0.672500    2.173300
H      1.839800   -2.541600    0.295700
H     -0.911100   -2.267700   -0.203800
