17
gdb_14844
C      0.183000    1.382600    0.265400
N     -0.044800   -0.025800   -0.029200
C      0.526300   -0.470100   -1.271200
C      2.068500   -0.736200   -1.347600
N      1.799100   -2.176200   -1.131700
C      0.383800   -2.011000   -1.521800
C     -0.575600   -2.762800   -0.711700
N     -1.327800   -3.367400   -0.076100
H      1.245500    1.679100    0.301300
H     -0.307800    1.997200   -0.498000
H     -0.269700    1.626000    1.230200
H      0.274200   -0.609200    0.737500
H      0.130700    0.151800   -2.078000
H      2.490900   -0.488700   -2.331300
H      2.687300   -0.277100   -0.569300
H      2.332900   -2.831000   -1.691700
H      0.170700   -2.214300   -2.580900
