22
gdb_14173
C      0.021900    1.573300    0.064700
C      0.060100    0.056200    0.036100
C     -1.255600   -0.540900   -0.441700
C      1.295300   -0.731000   -0.357700
C      2.672000   -0.077600   -0.375300
C      2.919800    0.490500    1.050200
C      1.847000   -0.143200    1.979500
C      0.793400   -0.770900    1.074700
H      0.950300    2.029300    0.408800
H     -0.188000    1.969600   -0.936200
H     -0.780700    1.923200    0.725300
H     -1.499300   -0.198700   -1.454900
H     -1.218600   -1.634600   -0.460200
H     -2.083800   -0.246700    0.214400
H      1.143600   -1.576700   -1.022000
H      3.416900   -0.844000   -0.616600
H      2.768000    0.699600   -1.142200
H      3.931400    0.262300    1.398300
H      2.842300    1.580600    1.053300
H      2.291900   -0.933500    2.594100
H      1.430300    0.593100    2.676300
H      0.275300   -1.645700    1.456400
