13
gdb_21959
O      0.109200    1.417200   -0.004800
C      0.078300    0.006300    0.026500
C     -1.358300   -0.537200   -0.130300
C     -1.403300   -2.023500   -0.102500
N     -1.624900   -2.798600   -1.126500
O     -1.544700   -4.055900   -0.632700
N     -1.264700   -3.987800    0.728300
N     -1.179400   -2.774900    1.043100
H     -0.259100    1.746700    0.821200
H      0.687900   -0.332400   -0.817000
H      0.528800   -0.398100    0.944100
H     -1.978300   -0.153300    0.688200
H     -1.780900   -0.179800   -1.071600
