14
gdb_691
O     -0.085800    1.449600   -0.074100
C     -0.025100    0.043600    0.037800
C      0.239500   -0.593900    1.450700
C     -1.117800   -1.297000    1.345500
C     -2.203200   -0.272400    1.197200
C     -1.386500   -0.635700   -0.012600
H      0.808900    1.795800    0.004100
H      0.659200   -0.380600   -0.709500
H      1.098300   -1.269300    1.452400
H      0.340100    0.119300    2.275700
H     -1.320900   -2.317700    1.643700
H     -3.217200   -0.658800    1.191300
H     -2.097800    0.709900    1.649000
H     -1.840700   -1.050900   -0.903900
