14
gdb_14542
O     -0.034100    1.380200    0.002400
C     -0.023400   -0.014400    0.011000
C      1.070800   -0.602500    0.732800
C      1.976300   -1.117700    1.333100
C     -1.334400   -0.816100    0.056600
C     -2.369100   -0.046500   -0.750800
O     -1.456800    0.047800   -1.893000
C     -0.504800   -0.768100   -1.207800
H     -0.315000    1.635300   -0.888100
H      2.782000   -1.560000    1.865000
H     -1.513900   -1.611000    0.766500
H     -3.247500   -0.637700   -1.025100
H     -2.667400    0.937800   -0.377600
H      0.064600   -1.492700   -1.777900
