23
gdb_6558
C     -0.010200    1.543900    0.126700
C      0.012400    0.009800    0.007600
C      0.783200   -0.591100    1.196500
C     -1.428300   -0.531100    0.007300
C      0.669100   -0.396100   -1.330200
N      2.053000    0.055800   -1.451500
C      3.101600   -0.928700   -1.205200
C      2.801000   -0.468600   -2.587600
H      1.001100    1.951000    0.052100
H     -0.612100    1.990600   -0.672800
H     -0.443100    1.855100    1.083700
H      0.286200   -0.344100    2.141000
H      0.836200   -1.683900    1.126900
H      1.804600   -0.203900    1.244900
H     -2.003700   -0.130900   -0.835300
H     -1.445400   -1.624700   -0.064100
H     -1.949300   -0.249800    0.928600
H      0.587700   -1.491800   -1.461300
H      0.102900    0.064100   -2.150300
H      3.980700   -0.567100   -0.679100
H      2.797900   -1.941100   -0.942800
H      2.298200   -1.176000   -3.246100
H      3.454300    0.237300   -3.093000
