14
gdb_2454
O      0.009700    0.419100    0.963500
C     -0.013600    1.367900    0.227100
C     -1.287800    2.046700   -0.312300
C     -0.803300    3.336100   -0.932800
N     -0.055800    4.173000    0.027800
C      0.688700    3.357100   -0.952900
C      1.225900    2.082100   -0.346200
H     -1.746200    1.384800   -1.058000
H     -2.008300    2.185100    0.498000
H     -1.382700    3.818500   -1.712600
H     -0.073600    5.143000   -0.276700
H      1.233100    3.855400   -1.747900
H      1.963800    2.241000    0.444400
H      1.682500    1.433100   -1.104300
