15
gdb_95
C     -0.470100    1.442100   -0.066800
C      0.142900    0.054900    0.037500
C      1.372500   -0.303000   -0.846800
C      1.959500   -1.093600    0.353300
C      0.998900   -0.307700    1.285600
H      0.292100    2.218400    0.068400
H     -0.936100    1.600900   -1.046100
H     -1.241500    1.597100    0.696300
H     -0.635200   -0.705600   -0.100600
H      1.193400   -0.841200   -1.781300
H      1.968700    0.588600   -1.070000
H      1.698700   -2.155000    0.305200
H      3.032500   -1.010800    0.541500
H      1.482900    0.582400    1.702100
H      0.513000   -0.849800    2.101200
