13
gdb_8252
O      0.185700    0.121300   -0.749000
C      0.033300    1.145300   -0.172200
C     -1.114500    2.087600    0.199100
C      0.005500    2.922300    0.846100
C     -0.037700    3.078200    2.364300
C      1.171100    3.699300    2.902500
N      2.121800    4.204000    3.320800
O      0.994800    1.926700    0.430600
H     -1.625300    2.537000   -0.653200
H     -1.848600    1.653500    0.881000
H      0.216800    3.876000    0.357900
H     -0.901800    3.696600    2.634800
H     -0.177300    2.096700    2.830800
