14
gdb_1307
C     -0.104600    1.560900    0.025200
C     -0.039300    0.035100   -0.056800
N     -1.316700   -0.652500    0.086300
C      0.874500   -0.537100   -1.170200
O      1.816000   -1.031600   -0.157300
C      1.023800   -0.594500    0.864200
O      1.186900   -0.720400    2.035700
H      0.881400    2.021900   -0.092200
H     -0.758300    1.953700   -0.762000
H     -0.510300    1.867100    0.994100
H     -1.570700   -0.681000    1.070100
H     -2.051600   -0.135000   -0.388500
H      0.441600   -1.366600   -1.729700
H      1.365400    0.183500   -1.827400
