19
gdb_12008
C      0.118800    1.520100   -0.009200
C     -0.010800    0.000300    0.040300
C     -1.476200   -0.454300    0.008800
O      0.687900   -0.512600   -1.114000
C      1.331100   -1.744000   -0.810900
C      1.546300   -1.735900    0.687200
N      2.177400   -0.482300    1.152400
C      0.711200   -0.640100    1.221700
H      1.171600    1.799700    0.061200
H     -0.286300    1.902000   -0.950700
H     -0.431600    1.985300    0.815200
H     -1.956600   -0.099000   -0.906900
H     -1.550000   -1.546300    0.031700
H     -2.032200   -0.058400    0.865500
H      0.709900   -2.610200   -1.091800
H      2.261800   -1.782900   -1.387200
H      1.717300   -2.663600    1.222900
H      2.570600   -0.633400    2.078600
H      0.215500   -0.696300    2.185400
