14
gdb_5402
C     -0.060000    1.401600   -0.059800
O      0.008800   -0.014700    0.008100
C      0.641400   -0.566600    1.067900
C      1.245700    0.119700    2.121400
N      1.847800   -0.526000    3.126100
C      1.843600   -1.853500    3.074000
N      1.296900   -2.611600    2.116300
C      0.701400   -1.964800    1.123000
H      0.940200    1.850100   -0.106700
H     -0.602800    1.633600   -0.976700
H     -0.601700    1.818700    0.798100
H      1.252400    1.204200    2.169600
H      2.332700   -2.378300    3.889900
H      0.246200   -2.550200    0.327100
