16
gdb_8738
C      0.091600    1.584000   -0.055000
C      0.010200    0.050300    0.026100
C      0.704300   -0.447400    1.216100
N      1.212200   -0.842100    2.177000
C     -1.468900   -0.502000    0.045400
N     -2.279400   -0.107400    1.193200
C     -2.138800   -0.135100   -1.202300
C     -2.663600    0.183700   -2.234900
H      1.132200    1.913300   -0.092200
H     -0.420600    1.929400   -0.955800
H     -0.376200    2.047700    0.817600
H      0.504800   -0.381200   -0.852300
H     -1.384800   -1.595700    0.078500
H     -1.804400   -0.356100    2.056300
H     -2.436900    0.894900    1.197800
H     -3.146100    0.447500   -3.143800
