17
gdb_7678
C     -0.007000    1.520400   -0.019800
C      0.016800    0.006800   -0.099700
C     -1.201000   -0.651000    0.519100
C      0.691300   -0.747500   -1.173900
C      1.941800   -0.072600   -1.731100
C      2.402200   -0.015100   -0.264500
O      3.366500    0.381700    0.311900
N      1.271800   -0.759500    0.256900
H      0.849900    1.997100   -0.498800
H     -0.916200    1.900500   -0.497100
H     -0.021400    1.837900    1.027800
H     -2.109000   -0.342700   -0.010400
H     -1.121500   -1.739600    0.479200
H     -1.301100   -0.356600    1.568200
H      0.269200   -1.661600   -1.576800
H      2.571400   -0.752600   -2.311200
H      1.838500    0.869300   -2.274500
