20
gdb_13406
C     -0.133000    1.544100    0.091900
C     -0.007100    0.020400    0.019800
C      0.732500   -0.576500    1.221600
C      0.839200   -2.096700    1.171800
C      1.564300   -2.728700    2.378000
O      0.836200   -3.921500    2.623900
C     -0.491800   -3.584800    2.318900
O     -0.457900   -2.712300    1.208300
H      0.851600    2.024400    0.127400
H     -0.665200    1.941000   -0.778000
H     -0.682900    1.854100    0.987600
H     -1.001100   -0.436100   -0.039700
H      0.516900   -0.262700   -0.902800
H      1.748300   -0.159500    1.278800
H      0.223200   -0.290800    2.151700
H      1.321900   -2.403000    0.232900
H      2.604300   -2.992700    2.176700
H      1.526700   -2.057400    3.251200
H     -1.038600   -4.496500    2.058200
H     -0.977200   -3.086700    3.179000
