12
gdb_5163
N      0.058500    1.216500    0.320600
C     -0.051900    0.019400   -0.036500
O     -1.055700   -0.738100    0.519400
C     -1.095000   -2.046300    0.221600
C     -2.099500   -2.876600   -0.139800
N     -1.589900   -4.169400   -0.222600
C     -0.342300   -4.049600    0.078600
O      0.048800   -2.777700    0.373600
H      0.825800    1.664100   -0.176700
H      0.552700   -0.538000   -0.757400
H     -3.131200   -2.641700   -0.338800
H      0.422300   -4.808500    0.120400
