16
gdb_5629
N      0.074400    1.422200    0.150700
C      0.033600    0.013300    0.028600
C     -1.075500   -0.803700   -0.002300
N     -0.627600   -2.108500   -0.032500
C      0.739500   -2.130100   -0.034100
C      1.187400   -0.829400    0.008800
C      2.610400   -0.375800    0.057000
O      3.456800   -1.516500    0.017900
H      0.693700    1.842800   -0.534100
H     -0.843000    1.834700    0.030800
H     -2.127500   -0.567900    0.003400
H     -1.218300   -2.919200   -0.055000
H      1.296400   -3.051000   -0.059200
H      2.829300    0.298500   -0.792000
H      2.783100    0.217300    0.971400
H      4.364400   -1.214200    0.108700
