15
gdb_18512
O     -0.069100   -0.017800   -0.124700
C     -0.008800    1.172500   -0.173900
O      1.112900    1.860200    0.121400
C      1.084000    3.284100    0.042300
C      1.585100    4.062200    1.281700
N      2.614800    4.794600    0.460400
C      3.510300    3.744100   -0.045800
C      2.216900    3.928400   -0.734000
H     -0.851500    1.831600   -0.462600
H      0.095900    3.615700   -0.291400
H      0.852400    4.757400    1.694600
H      2.008700    3.450800    2.083600
H      4.387600    4.140100   -0.546800
H      3.684900    2.855000    0.555200
H      2.137400    4.332600   -1.737400
