16
gdb_12521
O      0.247300    1.298500   -0.373900
C      0.053900   -0.083900   -0.054500
C      0.752400   -0.481000    1.219700
C      0.404100   -0.055000    2.453400
C     -0.783300    0.665900    2.825100
C     -1.968800    0.677100    2.155700
C     -2.273800   -0.029800    0.941200
C     -1.403500   -0.460700    0.002400
H     -0.151100    1.809200    0.340100
H      0.520700   -0.612100   -0.889900
H      1.646600   -1.090200    1.118000
H      1.085600   -0.282100    3.271000
H     -0.755300    1.163800    3.791400
H     -2.803500    1.183000    2.634800
H     -3.329100   -0.240600    0.778000
H     -1.786800   -1.057900   -0.820800
