18
gdb_8071
O      0.312100    0.563500    0.949900
C     -0.141000    0.398600   -0.387600
C     -1.483200   -0.314800   -0.402800
C     -2.058500   -1.095800   -1.632500
C     -0.989800   -2.203500   -1.398200
C     -1.546500   -1.810400    0.005600
O     -1.114200   -2.233800    1.255800
C     -2.972700   -1.856300   -0.623100
H      0.252500   -0.300200    1.375600
H     -0.244400    1.407900   -0.801400
H      0.611800   -0.119800   -0.998900
H     -2.224200    0.302700    0.116600
H     -2.363500   -0.680200   -2.589600
H     -1.252300   -3.202700   -1.757800
H      0.050100   -1.967000   -1.622800
H     -1.124400   -3.196600    1.286000
H     -3.747600   -1.270800   -0.122500
H     -3.340500   -2.833600   -0.948100
