20
gdb_7542
C      0.073500    1.368900   -0.376200
C      0.045400   -0.052400    0.125800
O      1.290900   -0.759400    0.189300
C      0.574500   -0.529900    1.420500
C      1.247100    0.410300    2.399800
C     -0.028300   -1.790300    2.020900
C      1.018300   -2.789100    2.509500
O      0.319900   -3.933800    2.979400
H      0.882600    1.951000    0.067900
H      0.212100    1.376700   -1.462600
H     -0.877500    1.867600   -0.158600
H     -0.764800   -0.648300   -0.302300
H      1.696600    1.265700    1.894500
H      0.524200    0.778800    3.135700
H      2.043300   -0.104300    2.946900
H     -0.688800   -1.527200    2.856000
H     -0.643400   -2.296900    1.270700
H      1.689800   -3.038200    1.674900
H      1.632200   -2.348600    3.310600
H      0.968800   -4.592800    3.242200
