16
gdb_9296
O     -0.234000    1.424500   -0.116300
C      0.009600    0.037600   -0.081000
C     -1.275300   -0.733300    0.230400
O     -2.298400   -0.359600   -0.694000
C     -1.070700   -2.245000    0.258000
O     -2.236500   -2.909300    0.741200
C     -3.152400   -3.312300   -0.164200
O     -4.199000   -3.789900    0.148200
H     -1.088900    1.533500   -0.552600
H      0.426900   -0.325300   -1.040000
H      0.764300   -0.146500    0.691400
H     -1.655600   -0.413100    1.205900
H     -2.010000   -0.611200   -1.580600
H     -0.805800   -2.615900   -0.743200
H     -0.260400   -2.512600    0.941800
H     -2.812300   -3.174600   -1.208700
