13
gdb_20386
C      0.013500    1.429300    0.050200
C      1.506300    1.918200   -0.056500
C      2.196700    0.601100    0.066900
C      1.323800   -0.423900   -0.062800
N      0.000800   -0.030500   -0.299200
N      2.028800   -1.585100   -0.042800
N      3.262000   -1.336000    0.098100
O      3.426000    0.131700    0.155000
H     -0.338300    1.580100    1.078400
H     -0.645900    1.982000   -0.621800
H      1.710700    2.383300   -1.028700
H      1.754900    2.648400    0.717800
H     -0.697100   -0.548300    0.221200
