20
gdb_13024
C      0.030100    1.545200   -0.066000
C      0.050400    0.028300    0.040400
O      0.750100   -0.495700   -1.090300
C      1.229300   -1.795000   -0.758800
C      1.527200   -1.746200    0.728000
C      2.264100   -0.516900    1.201300
C      0.755300   -0.562000    1.262800
C      0.025000   -0.566400    2.582500
H      1.045200    1.950200   -0.025100
H     -0.427300    1.853900   -1.010000
H     -0.552000    1.978400    0.753400
H     -0.989600   -0.347800    0.040800
H      0.470000   -2.566400   -0.969700
H      2.101800   -1.990600   -1.391800
H      1.603500   -2.674600    1.282900
H      2.796700   -0.587400    2.143800
H      2.742900    0.110200    0.455700
H     -0.134300    0.451800    2.957000
H     -0.958100   -1.043600    2.492000
H      0.590700   -1.110100    3.345300
