13
gdb_7703
N     -0.106100    1.313200    0.197900
C     -0.092700    0.072700   -0.050600
O      1.069100   -0.524400   -0.530300
C      1.196100   -1.857100   -0.832400
O      2.248700   -2.251500   -1.238000
C     -0.011000   -2.756100   -0.633700
C     -1.238800   -2.080100   -0.117500
C     -1.262600   -0.775100    0.147200
H      0.804700    1.729500   -0.004100
H     -0.202700   -3.246400   -1.597000
H      0.305500   -3.568400    0.033400
H     -2.120500   -2.694400    0.036400
H     -2.139800   -0.263400    0.521600
