15
gdb_4873
O      0.536500    0.306900   -0.853700
C     -0.136700    0.293700    0.408500
C     -1.512000   -0.267500    0.326000
C     -2.733600    0.217500    0.724500
C     -3.731200   -0.756900    0.409600
C     -3.068000   -1.805300   -0.184800
O     -3.475800   -2.988600   -0.708500
N     -1.736400   -1.522100   -0.226600
H     -0.033900    0.782300   -1.468100
H      0.513300   -0.310600    1.054100
H     -0.193700    1.296900    0.854900
H     -2.899200    1.167800    1.210000
H     -4.792200   -0.694200    0.595300
H     -4.433000   -3.039300   -0.629400
H     -1.041900   -2.085200   -0.687500
