15
gdb_12996
O      0.027200    1.405000   -0.059000
C     -0.044200    0.026600   -0.015900
C     -0.436000   -0.796200   -1.218700
C     -1.307700   -0.797200    0.019800
C     -1.071800   -1.938200    1.007400
N      0.344000   -1.807500    1.344900
C      0.911000   -0.633600    0.942000
O      1.970200   -0.151600    1.294300
H      0.907000    1.617800    0.288600
H     -0.809600   -0.218000   -2.056900
H      0.129500   -1.685300   -1.482700
H     -2.289100   -0.343200   -0.027600
H     -1.701600   -1.825900    1.899600
H     -1.282700   -2.919200    0.564400
H      0.799500   -2.387500    2.031100
