12
gdb_983
N      0.033400    1.438300   -0.141600
C      0.036800    0.036500   -0.021900
C     -1.042200   -0.790500    0.042600
O     -2.360000   -0.514400    0.151900
O     -0.657500   -2.101900    0.063600
C      0.703000   -2.102300    0.013700
C      1.182500   -0.833400   -0.036700
H      0.700500    1.875700    0.483400
H     -0.886400    1.814800    0.056800
H     -2.826000   -0.821200   -0.636300
H      1.171600   -3.071900    0.018500
H      2.218700   -0.537300   -0.092500
