14
gdb_2669
C     -0.024700    1.562600    0.020400
C     -0.002800    0.033300    0.010300
C      0.710000   -0.525300   -1.241800
C      0.745700   -1.976900   -1.278300
C      0.763100   -3.185400   -1.286600
C      0.784900   -4.550000   -1.299700
N      0.803200   -5.711800   -1.310800
H      0.989800    1.975800    0.015300
H     -0.550600    1.959500   -0.854700
H     -0.532800    1.938300    0.913000
H      0.504700   -0.345200    0.903900
H     -1.023800   -0.361400    0.041000
H      0.209400   -0.157900   -2.147600
H      1.738200   -0.141900   -1.284500
