18
gdb_5077
C      0.020700    1.498300    0.059000
C      0.025300    0.001000    0.030800
C      0.027200   -0.809400   -1.079200
N      0.035500   -2.118100   -0.655400
C      0.025700   -2.173700    0.718100
C      0.019200   -3.451500    1.484800
C      0.025400   -0.870000    1.171300
N      0.017500   -0.513700    2.554900
H      0.861500    1.898000    0.640000
H      0.091800    1.912800   -0.950800
H     -0.894300    1.902600    0.511800
H      0.023900   -0.563200   -2.129500
H      0.035500   -2.920100   -1.260200
H      0.959900   -4.009600    1.388300
H     -0.125900   -3.218700    2.542200
H     -0.790400   -4.120600    1.166900
H      0.941000   -0.228100    2.869600
H     -0.594400    0.279800    2.718100
