16
gdb_15245
O      0.073500    1.227400   -0.524900
C     -0.045900    0.115300    0.344500
C     -1.418800   -0.526500    0.244700
C     -1.816100   -1.141100   -1.063600
O     -0.879900   -1.130300   -2.101900
C     -1.585200   -2.051100    0.138200
C     -0.457600   -2.931100    0.086800
C      0.478600   -3.678800   -0.041400
H     -0.015600    0.868500   -1.416600
H      0.733200   -0.633000    0.150200
H      0.115100    0.493600    1.358600
H     -2.210500   -0.025400    0.793300
H     -2.839400   -1.031700   -1.413300
H     -0.394400   -1.966200   -2.085500
H     -2.472700   -2.469700    0.602700
H      1.308100   -4.339400   -0.104100
