17
gdb_1486
C      0.065100    1.546000    0.121300
C      0.004400    0.022600   -0.011500
C     -1.428300   -0.522300   -0.034400
O     -2.199500    0.048000   -1.089800
C     -1.460300   -2.061300   -0.101800
C     -2.864500   -2.621200   -0.008900
O     -3.177700   -3.554700    0.685800
H      1.097600    1.904500    0.079500
H     -0.501000    2.028300   -0.679800
H     -0.365000    1.874100    1.073700
H      0.512600   -0.297300   -0.933800
H      0.548600   -0.452200    0.813900
H     -1.942600   -0.197100    0.879400
H     -1.740900   -0.131600   -1.919000
H     -1.037100   -2.374100   -1.069400
H     -0.851400   -2.514100    0.686300
H     -3.610000   -2.095200   -0.642600
