22
gdb_8936
C      0.038500    1.604200   -0.012600
C     -0.018300    0.073100    0.045200
C     -1.440600   -0.518100   -0.011200
C     -2.177800   -0.105400   -1.296300
C     -1.436900   -2.064400    0.128700
C     -0.720300   -2.581800    1.392400
C     -2.864500   -2.575500    0.189100
O     -3.349200   -3.399400   -0.542400
H      1.064500    1.956300    0.132100
H     -0.308500    1.996300   -0.972700
H     -0.579200    2.052900    0.773800
H      0.574900   -0.347000   -0.779000
H      0.471100   -0.250400    0.969300
H     -1.999700   -0.115000    0.848300
H     -1.628400   -0.442000   -2.183400
H     -3.179400   -0.543200   -1.348700
H     -2.292100    0.979200   -1.364200
H     -0.976500   -2.511100   -0.760600
H     -1.136300   -2.127400    2.298900
H     -0.828300   -3.667300    1.479900
H      0.348200   -2.359000    1.363800
H     -3.462600   -2.128400    1.021700
