16
gdb_7096
C     -0.221100    1.296200    0.422300
C      0.114400   -0.144400    0.033700
N     -1.023300   -1.043800    0.176700
C     -1.650500   -1.600600   -0.885000
O     -1.334200   -1.444500   -2.047500
C     -2.860400   -2.513100   -0.561900
C     -3.201500   -2.644000    0.847800
N     -3.424600   -2.708700    1.980600
H      0.663100    1.932000    0.315200
H     -1.012700    1.696600   -0.217500
H     -0.556700    1.361400    1.462800
H      0.419500   -0.203900   -1.012700
H      0.941600   -0.521400    0.646700
H     -1.382900   -1.223000    1.102100
H     -3.716300   -2.117800   -1.117400
H     -2.640400   -3.498100   -0.984800
