17
gdb_18077
C      0.035400    1.510600   -0.030800
C     -0.000500    0.056100    0.014000
C     -0.021700   -1.148900    0.048800
C     -0.027000   -2.584200    0.065000
C     -0.465900   -3.399100    1.229400
C     -1.571800   -2.714400    2.025700
C     -2.353500   -2.655000    0.687300
N     -1.271500   -3.405600   -0.051300
H      1.057600    1.883600    0.098300
H     -0.337700    1.891000   -0.988200
H     -0.578700    1.948900    0.763500
H      0.762300   -3.041000   -0.527900
H      0.107100   -4.264300    1.550500
H     -2.037800   -3.372500    2.760800
H     -1.306700   -1.768300    2.504400
H     -3.267200   -3.251700    0.682000
H     -2.560200   -1.665100    0.273300
