20
gdb_14308
C      0.037000    1.567500   -0.000300
C      0.064600    0.040600    0.000500
C      0.809000   -0.589000   -1.205000
C      1.270400   -1.965500   -0.725600
C      2.542800   -2.027200    0.066800
O      3.392600   -0.917500    0.019800
C      1.221800   -1.966700    0.800800
C      0.734900   -0.589500    1.248600
H      1.055000    1.973400    0.026800
H     -0.453300    1.958100   -0.898600
H     -0.503200    1.959700    0.868400
H     -0.969600   -0.329400   -0.028400
H      0.161200   -0.670500   -2.082500
H      1.667300    0.029700   -1.487800
H      0.990100   -2.842500   -1.298400
H      3.062200   -2.985900    0.077800
H      3.803800   -0.819600    0.885200
H      0.907300   -2.844100    1.355500
H      1.572900    0.037400    1.579300
H      0.040000   -0.665000    2.089900
