19
gdb_12672
C     -0.513900    1.426200   -0.024500
C      0.087900    0.023700   -0.018400
C      1.169600   -0.201600   -1.084800
O      1.933700   -1.326500   -0.626000
C      1.772500   -1.489100    0.722900
N      2.348700   -2.378000    1.409800
C      0.821700   -0.435600    1.265700
C      1.607600    0.656100    2.011000
H      0.248000    2.196600    0.127900
H     -1.006800    1.632000   -0.980700
H     -1.265900    1.537100    0.762900
H     -0.713400   -0.700900   -0.210000
H      0.770200   -0.444900   -2.072600
H      1.832100    0.669300   -1.183000
H      2.960800   -2.946300    0.821400
H      0.135000   -0.909900    1.970600
H      2.318100    1.171300    1.355600
H      0.934000    1.405700    2.435900
H      2.176500    0.200000    2.824700
