17
gdb_13093
C     -0.346900    1.410600    0.151000
C      0.082900   -0.039900    0.059300
O      1.145000   -0.247600   -0.906000
C      2.053000   -0.732700    0.098400
C      0.972700   -0.632900    1.195700
N      1.272300    0.171300    2.350700
C      0.938900   -0.194700    3.622400
O      0.361000   -1.214300    3.928000
H      0.496800    2.069000    0.381500
H     -0.767900    1.731400   -0.806500
H     -1.111600    1.538700    0.924000
H     -0.780800   -0.673000   -0.181400
H      2.423600   -1.740200   -0.122600
H      2.913900   -0.063700    0.240500
H      0.613400   -1.589500    1.571600
H      1.746900    1.051500    2.224300
H      1.267800    0.560600    4.363100
