16
gdb_11801
C     -0.441800    1.403300   -0.035600
C      0.054200   -0.035500    0.010300
C      1.329300   -0.395100   -0.782900
O      1.724700   -0.103300   -1.873500
C      1.936400   -1.167400    0.405700
C      0.787000   -0.592100    1.249700
C      0.821300   -0.067900    2.614200
O      0.144600   -1.294600    2.292700
H      0.341600    2.101900    0.274100
H     -0.741200    1.666500   -1.054200
H     -1.306000    1.544400    0.620800
H     -0.747300   -0.731900   -0.273500
H      1.867400   -2.253400    0.278500
H      2.962100   -0.906500    0.678000
H      1.724600   -0.177100    3.213000
H      0.172600    0.759900    2.896600
