11
gdb_897
O     -0.133800    1.331500    0.011000
C      0.059900   -0.001100    0.002700
C      1.137600   -0.797200   -0.007800
O      0.701000   -2.129300   -0.012500
C     -0.674500   -2.139200   -0.004400
N     -1.447000   -3.143000   -0.005000
N     -1.062000   -0.811600    0.004600
H      0.720500    1.775500    0.008700
H      2.196900   -0.621500   -0.013200
H     -0.909900   -4.006000   -0.012600
H     -2.018900   -0.507900    0.013100
