17
gdb_11320
C     -0.016600    1.418200    0.009600
N     -0.011100   -0.035700    0.019300
C      0.546600   -0.625500   -0.953500
C      0.679000   -2.129600   -1.166400
N      1.398900   -2.309600   -2.433100
C      1.645000   -1.137800   -2.881800
C      2.364400   -0.834700   -4.154600
N      1.181900   -0.092700   -2.077600
H      1.000700    1.841800    0.016000
H     -0.540800    1.830600   -0.867700
H     -0.530000    1.788200    0.900400
H      1.226000   -2.599100   -0.341300
H     -0.304200   -2.611100   -1.209100
H      2.648600   -1.769900   -4.636500
H      1.728200   -0.258500   -4.835900
H      3.265100   -0.240700   -3.963200
H      1.284800    0.886800   -2.276500
