18
gdb_4542
C     -0.020100    1.466900    0.014800
N     -0.030100    0.019100    0.000000
C     -0.033800   -0.778500   -1.130000
C      0.024900   -2.072100   -0.685200
C      0.035500   -3.335500   -1.482900
N      0.070100   -2.086300    0.693300
C      0.040400   -0.826000    1.075500
C      0.075000   -0.359200    2.493300
H      0.996600    1.868400   -0.070500
H     -0.615300    1.848100   -0.818500
H     -0.459800    1.833000    0.944500
H     -0.082800   -0.350900   -2.118600
H      0.938500   -3.922100   -1.281000
H     -0.821000   -3.970300   -1.230000
H     -0.001400   -3.125300   -2.555600
H      0.947600    0.270300    2.703800
H     -0.818300    0.216900    2.763700
H      0.122000   -1.237700    3.137700
