13
gdb_10011
C      0.074600    1.510700   -0.145400
N      0.045300    0.069700   -0.282200
C     -1.030300   -0.573800   -0.129600
O     -1.059300   -1.948100   -0.257600
C      0.092100   -2.658900   -0.012200
O      0.148800   -3.823900   -0.245900
C     -2.339000   -0.060100    0.149800
C     -3.427300    0.396100    0.379900
H      0.779000    1.775200    0.650900
H      0.468300    1.941000   -1.072400
H     -0.899100    1.963900    0.075100
H      0.885500   -2.035900    0.420200
H     -4.394000    0.788300    0.584300
