12
gdb_20458
C      0.322500    1.574100    0.134400
N      1.184000    0.465200   -0.276000
C     -0.216900    0.186300    0.107800
C     -0.426200   -0.593300    1.338800
N      0.120600   -0.369300    2.500500
O     -0.373200   -1.339100    3.303100
N     -1.241100   -2.138200    2.565800
N     -1.271700   -1.690300    1.392200
H      0.578500    2.015200    1.092600
H     -0.050800    2.268500   -0.613500
H      1.267400    0.431800   -1.289000
H     -0.924100   -0.072400   -0.673900
