17
gdb_20935
C     -0.031300    1.531800    0.036300
C     -0.051200    0.011300   -0.076700
N      0.843700   -0.435600   -1.136600
C      0.895900   -1.806300   -1.409200
C      1.422400   -2.425700   -2.531100
N      1.298800   -3.765100   -2.316100
N      0.734400   -4.066400   -1.142600
C      0.481800   -2.881700   -0.582800
H      0.983600    1.893400    0.225500
H     -0.392700    2.001100   -0.886400
H     -0.678400    1.866300    0.851800
H      0.293500   -0.429900    0.866500
H     -1.086300   -0.342200   -0.227900
H      0.738700    0.120800   -1.974900
H      1.863300   -2.027000   -3.430400
H      1.576500   -4.510200   -2.930900
H      0.016100   -2.839500    0.389600
