14
gdb_20267
O     -0.062500    1.460800   -0.000600
C      1.388000    1.428800    0.002600
C      1.792100    0.734700    1.315900
C      2.162600   -0.680700    0.942500
O      2.295300   -0.798600   -0.457400
C      1.337000    0.123700   -0.867100
C      0.029300    0.012900   -0.006900
C      0.730600   -0.371500    1.308500
H      1.859700    2.367500   -0.280400
H      2.146100    1.249400    2.197200
H      2.824600   -1.319800    1.511100
H      1.259700    0.205200   -1.946700
H     -0.887200   -0.495100   -0.299600
H      0.225000   -0.752500    2.183700
