14
gdb_663
C     -0.064200    1.501700   -0.204900
C      1.433000    1.567500    0.238000
C      1.411500    0.044500    0.493100
O      1.009300   -0.293700    1.837400
C     -0.362900   -0.499900    1.426400
C     -0.060100   -0.040700   -0.007900
H     -0.775200    2.042400    0.426200
H     -0.225900    1.809900   -1.240200
H      2.108600    1.863800   -0.569500
H      1.659700    2.160800    1.126500
H      2.248800   -0.567400    0.145600
H     -0.649400   -1.556000    1.519100
H     -1.069700    0.112300    2.001800
H     -0.406300   -0.666000   -0.829800
