11
gdb_3154
O     -0.018800    0.059900    0.254100
C      0.024800    1.224400    0.037500
O     -0.992800    2.061300   -0.373800
C     -0.116400    3.232900   -0.448900
C      1.027600    2.370100    0.076100
C      2.134800    2.619000    1.000800
O      2.349300    2.329700   -0.386600
H     -0.003400    3.576100   -1.479100
H     -0.477200    4.033500    0.199300
H      2.351100    3.641600    1.304400
H      2.435500    1.834900    1.692300
