16
gdb_19131
N      0.106000   -1.190600    0.060000
C      0.090500   -0.032900    0.064600
C      0.004000    1.412300    0.025900
C      0.474800    2.178500    1.249700
C      1.305400    2.194800    0.001300
N     -1.092900    2.005400   -0.696100
C     -1.572800    1.363100   -1.919000
C     -2.398300    1.346800   -0.678400
H     -0.109500    3.059900    1.483700
H      0.825000    1.606200    2.100200
H      2.231900    1.633800   -0.014500
H      1.284800    3.087200   -0.612000
H     -1.808500    2.041500   -2.733200
H     -1.118700    0.420900   -2.216600
H     -2.485900    0.393800   -0.162000
H     -3.248500    2.013000   -0.569200
