11
gdb_20479
C      0.235600    1.552500    0.097500
O      1.131100    0.502300   -0.247600
C     -0.210400    0.147400    0.078300
C     -0.412500   -0.615500    1.325600
N      0.244200   -0.461100    2.441000
O     -0.292000   -1.373300    3.279200
N     -1.295200   -2.070500    2.609900
N     -1.363200   -1.615100    1.440900
H      0.422200    2.029100    1.057600
H     -0.060900    2.209200   -0.718400
H     -0.818600   -0.211700   -0.748700
