14
gdb_8809
O     -0.025000    1.407700    0.009500
C     -0.026900    0.005700    0.002600
C     -1.459500   -0.490300    0.013400
O     -2.430100    0.225500    0.026100
C     -1.615700   -2.026000    0.006900
O     -0.645100   -2.741800   -0.006000
C     -3.048300   -2.522000    0.017400
O     -3.050200   -3.924000    0.010300
H      0.890000    1.702900    0.002100
H      0.465800   -0.430000   -0.882600
H      0.482000   -0.438700    0.874100
H     -3.541100   -2.086500    0.902600
H     -3.557100   -2.077500   -0.854100
H     -3.965200   -4.219200    0.017200
