19
gdb_9410
C     -0.034000    1.384200    0.129900
O     -0.007700   -0.019800    0.020300
C     -1.286600   -0.605200    0.028800
C     -1.106400   -2.122600    0.014900
N     -0.492900   -2.652300    1.216800
C     -1.310500   -2.843200    2.401200
C      0.856500   -2.854300    1.285400
O      1.463600   -3.219500    2.270300
H      1.001800    1.730800    0.121800
H     -0.572400    1.849600   -0.710600
H     -0.511500    1.710300    1.067000
H     -1.856500   -0.288600    0.918600
H     -1.869700   -0.298600   -0.856800
H     -2.081300   -2.602200   -0.134400
H     -0.476800   -2.382800   -0.842300
H     -2.139400   -3.529300    2.190200
H     -0.672000   -3.266200    3.176800
H     -1.729100   -1.896700    2.764800
H      1.346900   -2.656700    0.314100
