20
gdb_17071
C      0.004600    1.521900   -0.324300
C     -0.121800    0.017900   -0.201900
C     -0.153900   -0.632200    1.157700
C     -1.398900   -0.604400    0.306500
C      1.431600    2.023200   -0.168000
C      1.667000    3.550100   -0.124000
C      2.321800    3.264000    1.241100
O      1.940600    1.874900    1.183600
H     -0.367100    1.853000   -1.305100
H     -0.619900    2.012000    0.433800
H      0.397500   -0.536100   -0.980700
H      0.359200   -1.578500    1.288500
H     -0.104900    0.021200    2.020700
H     -2.203500    0.062000    0.601300
H     -1.737000   -1.530300   -0.145800
H      2.091500    1.503500   -0.879100
H      2.312800    3.966900   -0.898200
H      0.745900    4.135200   -0.070000
H      3.412700    3.387200    1.264600
H      1.892100    3.773100    2.111800
