16
gdb_4173
O     -0.117900    1.302800    0.067600
N      0.009600   -0.094300    0.191700
C     -1.106700   -0.665400    0.026100
C     -2.539200   -0.277800   -0.278700
N     -2.883500   -1.739500   -0.352700
C     -1.503200   -2.097700    0.048600
C     -0.736100   -3.292400   -0.440700
C     -1.092800   -3.168500    1.022900
H      0.787100    1.602100    0.204900
H     -3.028300    0.281200    0.527300
H     -2.696600    0.254400   -1.221900
H     -3.563000   -1.997900    0.356300
H     -1.288900   -4.009700   -1.037500
H      0.295300   -3.136200   -0.737600
H     -0.310600   -2.927100    1.734500
H     -1.876400   -3.814200    1.407600
