15
gdb_9444
C     -0.226600    1.636800    0.073200
C      0.023800    0.129800    0.025200
N      1.212900   -0.275000   -0.804100
C      1.828400   -1.066100    0.294700
C      0.797400   -0.463800    1.253100
O      0.651400   -0.403800    2.432300
C     -1.181500   -0.635000   -0.260800
C     -2.159000   -1.290300   -0.511800
H      0.710000    2.161000    0.277600
H     -0.622000    1.986400   -0.884400
H     -0.950200    1.871700    0.858500
H      0.953900   -0.831100   -1.611000
H      1.720700   -2.156700    0.217700
H      2.877500   -0.828300    0.498900
H     -3.028000   -1.861700   -0.727700
