17
gdb_9390
C     -1.148800   -0.160500   -0.306100
C      0.308300    0.294100   -0.284400
O      1.110700   -0.321600   -1.284000
C      1.482000   -1.646100   -1.015200
C      2.372100   -2.120500   -2.174500
O      2.925600   -3.396100   -1.922500
C      1.631600   -2.095000   -3.451800
N      1.040700   -2.135700   -4.443800
H     -1.580400   -0.007300   -1.299200
H     -1.256200   -1.217000   -0.042400
H     -1.729200    0.420200    0.418100
H      0.368700    1.366500   -0.492800
H      0.753300    0.123800    0.708800
H      2.069800   -1.727800   -0.087500
H      0.613500   -2.318300   -0.927400
H      3.217500   -1.430300   -2.258000
H      2.220600   -4.051500   -1.977600
