20
gdb_17975
C      0.131600    1.495400    0.359600
C      1.596300    1.914500    0.139900
C      2.153200    1.576300   -1.246700
O      1.158900    1.828100   -2.240800
C      0.828300    0.706000   -3.014200
O      0.522100   -0.434300   -2.264600
C     -0.593600   -0.324300   -1.384100
C     -0.233300    0.026900    0.067000
H     -0.114200    1.712400    1.405600
H     -0.513100    2.142500   -0.245400
H      1.663700    2.996000    0.307800
H      2.242800    1.444700    0.892700
H      3.036100    2.189000   -1.469400
H      2.452500    0.524600   -1.283600
H     -0.024100    1.028100   -3.629900
H      1.663100    0.396600   -3.659800
H     -1.318000    0.403200   -1.779600
H     -1.071200   -1.310600   -1.397400
H      0.563700   -0.649600    0.401900
H     -1.117500   -0.230300    0.664700
