19
gdb_14746
C     -0.901200    0.563700    0.117200
O     -0.274800   -0.679300   -0.104300
C      0.593500   -0.675200   -1.213500
C      1.072800   -2.096400   -1.454200
O      0.041600   -2.929900   -1.967700
C     -0.786200   -3.504700   -1.065500
N     -1.801500   -4.137100   -1.451500
C     -2.615200   -4.765200   -0.432100
H     -0.167000    1.357500    0.325700
H     -1.507500    0.872500   -0.747800
H     -1.554200    0.449300    0.985400
H      0.078600   -0.306500   -2.115100
H      1.464400   -0.021400   -1.031300
H      1.863600   -2.094800   -2.209300
H      1.481200   -2.510900   -0.523100
H     -0.476700   -3.376300   -0.019000
H     -2.670100   -5.844600   -0.616100
H     -2.248000   -4.610000    0.596000
H     -3.640600   -4.382000   -0.490400
