15
gdb_16545
O      0.186200    1.350400    0.407800
C      0.046900   -0.026400    0.178500
C     -1.388800   -0.594100    0.005800
C     -2.453700    0.280500   -0.702900
C     -2.141700   -0.499700   -2.015800
N     -0.985700   -1.183600   -1.333900
C      0.208300   -0.431600   -1.307300
O      0.938200   -0.056100   -2.182400
H      0.818200    1.681500   -0.242800
H      0.641400   -0.618600    0.887800
H     -1.739500   -1.296800    0.762800
H     -3.471100    0.187100   -0.321100
H     -2.173500    1.335700   -0.732300
H     -2.907000   -1.222100   -2.306600
H     -1.836000    0.078100   -2.891000
