15
gdb_16294
O      0.050700    1.401000   -0.087400
C      0.086500    0.012300    0.016300
C      0.305300   -0.634400    1.440400
C     -1.075100   -1.272900    1.321700
N     -2.024600   -0.160000    1.116900
C     -1.281100   -0.715900   -0.057700
C     -1.946700   -1.245700   -1.192800
C     -2.488300   -1.683300   -2.175000
H     -0.690500    1.685600    0.465100
H      0.798200   -0.357700   -0.723600
H      1.122600   -1.358600    1.445500
H      0.428100    0.074000    2.262900
H     -1.413800   -2.224800    1.710800
H     -2.967400   -0.545200    1.079000
H     -2.965400   -2.071200   -3.040700
