19
gdb_17556
C     -0.059600    1.555300    0.049200
C      0.108900    0.069300   -0.002600
N     -0.822000   -0.857500    0.702900
C      0.637600   -0.912900    0.987600
C      1.260000   -1.777900   -0.116700
C      0.698400   -0.758400   -1.138400
C      0.122300   -1.004100   -2.496700
C      1.415400   -0.229300   -2.344100
H      0.848700    2.067400   -0.285300
H     -0.886500    1.887500   -0.590500
H     -0.276100    1.888800    1.070000
H     -1.244000   -0.320300    1.462300
H      1.010700   -0.753300    1.992400
H      2.353100   -1.790200   -0.089900
H      0.876300   -2.800000   -0.178300
H      0.174600   -2.011600   -2.896600
H     -0.771600   -0.459100   -2.782800
H      1.392400    0.839800   -2.532500
H      2.342900   -0.710200   -2.639300
