18
gdb_17436
C      0.032100    1.572700    0.026200
C      0.062700    0.053500   -0.041900
C      0.800200   -0.661300   -1.177100
C      2.249400   -0.790600   -0.676100
O      2.342900   -0.133200    0.585400
C      1.040300   -0.729300    0.898500
C      0.807700   -0.944500    2.360800
C      1.238300   -1.794200   -0.253700
H      1.048700    1.972900    0.016800
H     -0.513600    1.990900   -0.826700
H     -0.467000    1.920500    0.937900
H     -0.940200   -0.375900    0.062100
H      0.537000   -0.720000   -2.226000
H      3.126700   -0.852300   -1.306000
H      0.817100    0.014700    2.889900
H     -0.163000   -1.421000    2.529200
H      1.589200   -1.578100    2.789900
H      1.167000   -2.871200   -0.314100
