20
gdb_16411
C     -0.000500    1.504600    0.045100
C     -0.002900    0.006200   -0.016000
C     -0.019100   -0.705100   -1.147000
C     -0.019800   -2.216300   -1.089400
C     -0.000300   -2.694300    0.372400
C     -1.056300   -1.908200    1.203800
C      0.014200   -0.777900    1.288600
C      1.079700   -1.910400    1.174600
H      0.885800    1.879100    0.574400
H     -0.014000    1.950000   -0.953800
H     -0.870900    1.880900    0.598900
H     -0.031900   -0.221000   -2.120400
H     -0.903800   -2.617900   -1.606000
H      0.848900   -2.619600   -1.629900
H     -0.000500   -3.785300    0.437000
H     -2.012500   -1.665200    0.732800
H     -1.229100   -2.378800    2.175800
H      0.026800   -0.130200    2.167800
H      1.278000   -2.381300    2.141500
H      2.023100   -1.669200    0.677600
