18
gdb_18611
C     -0.081900    1.589400   -0.098800
C      0.057300    0.087400    0.037600
C      1.341500   -0.691900   -0.211700
C      2.622000    0.072600   -0.098900
C      2.829500    0.513400    1.142700
C      1.729100    0.071500    2.097200
O      1.194900    1.117100    2.902400
C      0.732000   -0.648400    1.178800
H      0.850700    2.116200    0.120000
H     -0.369000    1.855300   -1.122300
H     -0.863800    1.974100    0.566300
H     -0.824500   -0.443100   -0.316000
H      1.299800   -1.577400   -0.836700
H      3.266600    0.261000   -0.950900
H      3.651800    1.135800    1.477400
H      2.126800   -0.640900    2.831400
H      0.818600    1.776400    2.311200
H      0.210800   -1.506400    1.586300
