18
gdb_14976
C      0.020800    1.380000   -0.009300
O      0.082400   -0.036300   -0.020200
C      0.705700   -0.585500    1.087500
C      0.553500   -2.101700    1.038400
C      1.483900   -2.744000    2.034000
C      2.488700   -2.070100    2.587800
C      2.783100   -0.643200    2.214400
O      2.080100   -0.224600    1.059200
H      1.020200    1.826100   -0.044600
H     -0.543500    1.678100   -0.895300
H     -0.500700    1.747500    0.887500
H      0.260100   -0.185900    2.022300
H     -0.488100   -2.370800    1.248500
H      0.766000   -2.437900    0.015700
H      1.300100   -3.780900    2.301100
H      3.136900   -2.525900    3.331300
H      2.563200    0.024400    3.068800
H      3.847300   -0.515700    1.983600
