16
gdb_16565
C      0.012700    1.563000   -0.011400
O      1.395400    1.918800   -0.103400
C      2.095900    0.703900    0.139200
O      1.320600   -0.288600   -0.498500
C      0.019300    0.006400    0.018200
C     -0.085300   -0.561600    1.440900
C      1.144300   -0.173300    2.229200
C      2.174400    0.421800    1.630100
H     -0.441800    1.988900    0.890900
H     -0.502800    1.959100   -0.891600
H      3.072000    0.762600   -0.346400
H     -0.720000   -0.433700   -0.653700
H     -0.992200   -0.182500    1.929900
H     -0.188300   -1.655000    1.407000
H      1.162400   -0.398100    3.292100
H      3.057900    0.743800    2.171100
