13
gdb_4893
C      0.117300    1.325100    0.157100
O     -0.218400    0.209600   -0.679900
C     -1.278400   -0.507500   -0.275500
C     -1.358800   -1.735200    0.250800
O     -2.691200   -2.069500    0.434600
C     -3.478600   -1.020000    0.006800
O     -4.677800   -1.018500    0.013100
N     -2.595400   -0.038000   -0.399700
H      0.995200    1.789900   -0.292800
H     -0.700600    2.053800    0.198500
H      0.351100    0.986400    1.172300
H     -0.617400   -2.460600    0.530600
H     -2.893800    0.775500   -0.909400
