22
gdb_10227
C      2.159700    1.601200    0.781800
C      2.157000    0.069900    0.807900
C      0.791100   -0.513000    1.191300
C      0.714800   -2.049200    1.206900
C      1.426000   -2.655600    2.416800
O      1.478500   -4.067000    2.245000
C     -0.744800   -2.530100    1.155700
O     -1.427800   -2.113800   -0.020000
H      1.912200    2.014300    1.766200
H      3.139000    1.995400    0.492400
H      1.420800    1.985000    0.069700
H      2.445100   -0.313000   -0.180200
H      2.930500   -0.279100    1.503500
H      0.490600   -0.126300    2.176600
H      0.037300   -0.153900    0.481700
H      1.223300   -2.439400    0.311600
H      2.438600   -2.236500    2.509300
H      0.876400   -2.387600    3.335300
H      1.886800   -4.451500    3.025800
H     -0.776000   -3.620400    1.272400
H     -1.305000   -2.090500    1.990400
H     -1.033900   -2.580200   -0.764200
