16
gdb_12600
C     -0.441900    1.508900    0.024300
C      0.147300    0.105300    0.003400
C      1.036200   -0.242200   -1.190100
O      0.980700    0.269200   -2.277500
C      2.036600   -1.328200   -0.767400
C      2.009100   -1.363600    0.773600
C      0.995700   -0.295000    1.209700
O      0.904200    0.168800    2.315700
H      0.352300    2.260000    0.054800
H     -1.037200    1.684400   -0.874300
H     -1.068300    1.644900    0.908400
H     -0.663800   -0.645200   -0.026900
H      1.726800   -2.278100   -1.216500
H      3.017500   -1.090700   -1.186300
H      1.681500   -2.332000    1.166900
H      2.974800   -1.149100    1.237900
