17
gdb_10076
O      0.191500    1.422900    0.177800
C      0.091900    0.028500    0.014100
C     -1.361300   -0.483600    0.020300
C     -2.115000   -0.091800   -1.253800
O     -2.102500    1.328200   -1.374100
C     -1.413900   -2.022100    0.163600
C     -0.913300   -2.496700    1.451500
N     -0.520000   -2.867500    2.472800
H     -0.424000    1.818000   -0.453400
H      0.580900   -0.314300   -0.917600
H      0.640600   -0.423400    0.847500
H     -1.871200   -0.028700    0.877200
H     -1.628000   -0.560700   -2.124200
H     -3.149900   -0.464300   -1.210200
H     -2.455500    1.571200   -2.235000
H     -2.443200   -2.380700    0.046200
H     -0.824600   -2.496500   -0.631500
