15
gdb_3369
C     -0.070100    1.575400    0.021600
C      0.033500    0.070900    0.086400
C      1.327400   -0.672800   -0.191600
O      2.512300    0.094000   -0.149300
C      2.872500    0.146300    1.219800
O      1.667200    0.128800    1.963800
C      0.771300   -0.650700    1.199700
H      0.843500    2.049200    0.382500
H     -0.241100    1.907700   -1.007300
H     -0.902700    1.932500    0.636300
H     -0.848100   -0.467400   -0.257900
H      1.370300   -1.547800   -0.831600
H      3.500600   -0.721800    1.485300
H      3.403700    1.081600    1.416900
H      0.352400   -1.507100    1.717300
