16
gdb_10026
C      0.170200    1.493400    0.066800
N     -0.203200    0.113300   -0.234900
C      0.658300   -0.541400   -1.217000
C      2.094500   -0.571100   -0.810200
N      3.190600   -0.546100   -0.444000
C      0.196800   -1.899400   -1.507100
C     -0.177700   -3.019100   -1.734300
C     -0.633000   -4.372600   -2.012200
H      1.199200    1.614700    0.439200
H      0.061700    2.102100   -0.837700
H     -0.520500    1.885600    0.817200
H     -0.222900   -0.447100    0.610700
H      0.612300    0.060600   -2.136300
H     -0.740700   -4.539200   -3.089100
H      0.075200   -5.113700   -1.627000
H     -1.605300   -4.563300   -1.545700
