18
gdb_6407
N      0.052400    1.488100    0.012600
C      0.052500    0.036000   -0.196700
C     -1.381800   -0.501300   -0.089200
N     -2.310200    0.152700   -1.031800
H     -3.575300   -1.026500   -0.668200
H     -2.263000    1.157400   -0.881000
H     -1.984400   -0.002400   -1.984800
C     -1.456600   -2.021400   -0.279300
C     -2.829500   -2.651200    0.002100
O     -3.891000   -1.903400   -0.322700
O     -2.941900   -3.756000    0.465700
H     -0.027400    1.695900    1.003900
H      0.933200    1.889900   -0.290300
H      0.429900   -0.161700   -1.208400
H      0.702000   -0.519300    0.499500
H     -1.753900   -0.260500    0.917100
H     -1.184400   -2.270900   -1.315600
H     -0.737000   -2.532200    0.363700
