20
gdb_7513
C     -0.030400    1.436400   -0.300700
C      0.081600   -0.035200    0.034500
C      1.412800   -0.754400    0.012600
C      0.685400   -0.559400    1.322400
C      1.259100    0.388600    2.357200
C      0.003800   -1.791700    1.925500
C      0.911500   -2.653800    2.678800
C      1.671400   -3.352900    3.294700
H      0.844900    2.002600    0.029000
H     -0.118900    1.576900   -1.383700
H     -0.913500    1.889100    0.164600
H     -0.758900   -0.620500   -0.333700
H      1.465200   -1.751800   -0.411700
H      2.302500   -0.156100   -0.159300
H      1.794800    1.222400    1.898000
H      0.469800    0.807400    2.993500
H      1.963100   -0.141500    3.006900
H     -0.815600   -1.469200    2.583200
H     -0.463000   -2.378400    1.124600
H      2.336000   -3.977200    3.838300
