17
gdb_13921
O      0.090700    0.039800   -0.259800
C      0.015900    1.214300   -0.050900
C     -1.113100    2.203500    0.287100
N     -0.061600    3.231600    0.516500
C      1.021500    2.370900   -0.004700
C      2.378200    2.174000    0.715400
C      3.034200    1.957100   -0.674600
C      1.804400    2.644800   -1.324800
H     -1.785300    2.379900   -0.563400
H     -1.717600    1.965100    1.168800
H     -0.194800    4.088900   -0.007600
H      2.695200    3.110300    1.183600
H      2.438400    1.366800    1.449000
H      4.011200    2.411000   -0.848800
H      3.080900    0.897400   -0.934600
H      1.401200    2.228900   -2.251600
H      1.961600    3.721100   -1.453500
