17
gdb_13178
O     -0.148900    1.379000    0.023000
C      0.068100   -0.018400   -0.050200
C      0.834700   -0.379400   -1.263800
N      1.468000   -0.646200   -2.193100
C      0.743900   -0.583300    1.198700
C     -0.024800   -0.459900    2.542200
C      0.456000   -1.893200    2.899900
C      0.783100   -2.124500    1.398500
H      0.709300    1.813600    0.090000
H     -0.931700   -0.458400   -0.144700
H      1.751200   -0.158200    1.280200
H      0.253300    0.357700    3.209700
H     -1.106000   -0.418300    2.377800
H      1.360300   -1.877700    3.514100
H     -0.266900   -2.565500    3.366100
H     -0.042700   -2.616200    0.873900
H      1.709700   -2.642100    1.144900
