12
gdb_4735
O      0.101500    1.375700   -0.128600
C      0.068900    0.019800   -0.030900
C     -0.009500   -0.821100   -1.127500
N     -0.021300   -2.105600   -0.658800
C      0.047400   -2.104300    0.713100
C      0.105300   -0.780000    1.132500
C      0.051800   -3.299600    1.460100
N      0.054700   -4.290000    2.063900
H      0.156400    1.750700    0.755200
H     -0.056000   -0.594300   -2.178900
H     -0.072700   -2.934300   -1.225500
H      0.166000   -0.450100    2.158000
