12
gdb_886
C     -0.009700    1.521100    0.049600
C     -0.005000    0.037100   -0.040100
C     -0.063500   -0.793500   -1.090100
O     -0.028800   -2.108400   -0.670300
C      0.056200   -2.123000    0.708800
O      0.103800   -3.114800    1.382800
N      0.069500   -0.795900    1.082600
H      0.903300    1.898900    0.524800
H     -0.075200    1.956500   -0.949900
H     -0.861800    1.886500    0.634900
H     -0.129800   -0.620900   -2.149700
H      0.126100   -0.513600    2.045100
