11
gdb_3796
C      0.012000    1.446300    0.063600
N     -0.089300    0.005500   -0.099200
C      0.587600   -0.621800   -1.088900
N      1.188600   -0.051300   -2.103700
O      1.659600   -1.122200   -2.829200
N      1.323400   -2.286400   -2.191900
N      0.679700   -2.007000   -1.146200
H      1.027200    1.772200    0.325800
H     -0.272500    1.938800   -0.869700
H     -0.678900    1.759800    0.847700
H     -0.249100   -0.556600    0.721100
