19
gdb_5824
C     -0.017200    1.543400    0.009200
C     -0.001900    0.005600    0.051100
C      0.716600   -0.480200    1.322100
C     -1.441900   -0.533900    0.020800
C      0.754500   -0.491500   -1.219300
O      2.079600   -0.002600   -1.327500
C      0.746400   -1.967000   -1.322900
N      0.772000   -3.121300   -1.379900
H      0.997000    1.946000   -0.044900
H     -0.572900    1.909900   -0.861000
H     -0.501400    1.941600    0.906200
H      0.177400   -0.142400    2.212100
H      0.773100   -1.572900    1.360900
H      1.732900   -0.076700    1.391900
H     -1.963300   -0.224700   -0.892000
H     -1.467900   -1.626300    0.072700
H     -2.006900   -0.143400    0.872900
H      0.232700   -0.098800   -2.099700
H      2.618600   -0.434500   -0.655700
