16
gdb_1039
C      0.033900    1.532600   -0.230200
C     -0.027400    0.035200    0.123300
C     -1.414400   -0.525900    0.154900
C     -2.201200   -0.944200    1.206500
C     -3.453800   -1.369100    0.679300
C     -3.400600   -1.200000   -0.683100
N     -2.163000   -0.687800   -0.989600
H      1.067800    1.892400   -0.234900
H     -0.391100    1.727400   -1.220700
H     -0.534000    2.124700    0.493400
H      0.594200   -0.527800   -0.587300
H      0.422000   -0.124300    1.108600
H     -1.903000   -0.944200    2.244400
H     -4.292800   -1.757200    1.236100
H     -4.126200   -1.399600   -1.455200
H     -1.843000   -0.473300   -1.918000
