15
gdb_6658
N     -0.177300    1.164600   -0.298200
C     -0.111000   -0.182200   -0.117100
O      0.725200   -0.886000   -0.651800
C     -1.169300   -0.770500    0.837000
N     -1.212600   -2.219500    0.849000
C     -1.750000   -2.785100   -0.390600
C     -1.841400   -4.245000   -0.297800
N     -1.902200   -5.396900   -0.240900
H      0.538300    1.613500   -0.846800
H     -0.833400    1.741400    0.199100
H     -0.941800   -0.416200    1.850800
H     -2.162200   -0.376400    0.586700
H     -0.263500   -2.563500    0.965800
H     -2.762900   -2.391900   -0.543500
H     -1.160500   -2.534000   -1.285600
