17
gdb_1313
C     -0.131900    1.535100    0.063000
C     -0.002900    0.017400    0.056200
C     -1.303600   -0.675800   -0.318400
O      1.080700   -0.406700   -0.830300
C      1.919100   -0.780000    0.278000
C      0.759300   -0.574800    1.274600
O      0.939300    0.326400    2.339500
H      0.812700    2.008500    0.337000
H     -0.421400    1.879400   -0.934700
H     -0.892700    1.858400    0.779600
H     -1.642800   -0.344200   -1.305100
H     -1.169300   -1.760800   -0.352400
H     -2.088100   -0.442100    0.409500
H      2.321200   -1.794400    0.169500
H      2.745700   -0.074000    0.437400
H      0.317500   -1.518200    1.620400
H      1.362900   -0.138800    3.066900
