18
gdb_12465
O     -0.042400    0.562700    1.364800
C     -0.061600    1.358000    0.442000
C     -1.397900    1.942300   -0.000400
C     -1.605400    2.270400   -1.482600
C     -0.759400    3.445500   -1.984600
C      0.691900    3.096800   -2.320900
C      1.541100    2.433100   -1.275800
C      1.235700    1.743100   -0.167900
H     -2.156700    1.239500    0.354600
H     -1.537400    2.862800    0.586100
H     -1.419700    1.381500   -2.099700
H     -2.664700    2.515700   -1.617500
H     -1.215800    3.863200   -2.889300
H     -0.778500    4.247300   -1.235000
H      0.711200    2.443300   -3.208400
H      1.212900    4.008400   -2.642200
H      2.606000    2.498900   -1.500300
H      2.058200    1.315800    0.400800
