16
gdb_18553
N     -0.151100    1.243700   -0.467900
C     -0.069600    0.067200   -0.047200
O      1.004300   -0.627000    0.478900
C      0.209100   -1.848800    0.646500
C     -0.145700   -2.137400    2.097600
C     -1.308500   -1.151100    2.384200
N     -2.040200   -0.984600    1.115700
C     -1.041100   -1.106900    0.067700
H      0.741700    1.733100   -0.380200
H      0.660900   -2.672600    0.093000
H     -0.493600   -3.174400    2.176500
H      0.709200   -2.013100    2.767200
H     -1.982100   -1.489800    3.173800
H     -0.907500   -0.177900    2.688700
H     -2.722800   -1.727700    1.009700
H     -1.470300   -1.436100   -0.878300
