15
gdb_16851
O     -0.017800   -0.073500    0.027400
C      0.006300    1.146200    0.003000
N     -1.149200    1.891800   -0.047100
C     -1.237900    3.313200    0.074500
C     -0.793900    4.022200    1.325900
C      0.069700    4.076500    0.067100
C      1.297700    3.261800   -0.018000
C      1.267900    1.924600   -0.015600
H     -1.997900    1.348300    0.005100
H     -2.073300    3.736800   -0.473900
H     -1.312700    4.930100    1.612500
H     -0.429900    3.412700    2.145200
H      0.094800    5.028100   -0.453500
H      2.245800    3.789100   -0.090200
H      2.167300    1.322200   -0.057700
