19
gdb_10308
C      0.120400    1.514400    0.068200
N     -0.111100    0.082600   -0.116300
C      0.641500   -0.517400   -1.211500
C      2.105600   -0.456900   -0.980100
N      3.220600   -0.341700   -0.695800
C      0.192200   -1.975900   -1.482800
C     -1.317300   -2.050300   -1.739300
N      1.022500   -2.510700   -2.563600
H      1.175900    1.780900    0.230900
H     -0.235000    2.054400   -0.816200
H     -0.462400    1.859600    0.926100
H      0.109400   -0.410300    0.744000
H      0.431000    0.071500   -2.115500
H      0.432700   -2.558300   -0.583500
H     -1.578400   -1.490100   -2.645800
H     -1.620600   -3.091300   -1.889100
H     -1.888700   -1.628700   -0.909800
H      0.923500   -3.519200   -2.613500
H      0.703000   -2.148400   -3.458800
