15
gdb_20840
C      0.221100    1.024700   -0.759100
C     -0.221400    0.328500    0.539300
C     -1.538700   -0.361100    0.424300
N     -2.606400   -0.029400    1.086000
N     -3.567800   -0.919400    0.656500
C     -3.122500   -1.827100   -0.279400
O     -3.707800   -2.725800   -0.842300
N     -1.784100   -1.428800   -0.411400
H      1.186900    1.517200   -0.616900
H      0.329500    0.313000   -1.584000
H     -0.508300    1.780800   -1.063000
H      0.543000   -0.396600    0.847300
H     -0.316400    1.056900    1.348700
H     -4.498400   -0.878500    1.032000
H     -1.138000   -1.890000   -1.027700
