16
gdb_5311
C      0.114100    1.385200   -0.384400
C      0.009400    0.012400    0.292600
O      0.380600    0.118500    1.647900
C     -1.378900   -0.568200    0.208100
N     -2.079800   -0.903500    1.268300
C     -3.275800   -1.396200    0.793900
C     -3.293400   -1.357500   -0.572300
N     -2.071600   -0.824400   -0.936000
H      1.126800    1.775400   -0.254100
H     -0.091900    1.322800   -1.459200
H     -0.591300    2.086000    0.070400
H      0.706000   -0.675600   -0.218400
H     -0.364100   -0.236900    2.158400
H     -4.046400   -1.747400    1.462300
H     -4.030400   -1.645800   -1.302900
H     -1.754500   -0.658800   -1.876300
