21
gdb_7555
C      0.045300    1.373800    0.217200
O      0.017700   -0.031500    0.224800
C     -1.244900   -0.557400   -0.133200
C     -1.170700   -2.068300   -0.089600
C     -0.011900   -2.656800   -0.871200
N     -1.521400   -2.668400    1.213200
C     -2.409800   -2.886400    0.056900
C     -3.821500   -2.352500    0.145800
H      1.055000    1.684100    0.497400
H     -0.188500    1.783500   -0.779100
H     -0.670100    1.801700    0.937600
H     -2.017300   -0.194400    0.558500
H     -1.518100   -0.223600   -1.150900
H      0.940600   -2.304800   -0.466400
H     -0.030100   -3.750800   -0.831300
H     -0.054300   -2.357800   -1.924800
H     -0.948100   -3.490100    1.388100
H     -2.349300   -3.864000   -0.423100
H     -3.862700   -1.406700    0.689400
H     -4.247500   -2.201200   -0.852300
H     -4.461500   -3.065400    0.677000
