18
gdb_11124
C      0.399500    1.389000   -0.051600
C      0.163600   -0.113800    0.123100
C     -1.247000   -0.528700   -0.250700
C     -1.717400   -1.947000    0.144900
C     -2.788600   -1.208800    0.964200
O     -2.250300    0.083500    0.618200
C     -4.221300   -1.333000    0.480200
O     -4.696900   -2.334700    0.012200
H      1.411400    1.668600    0.255600
H      0.271000    1.691500   -1.096700
H     -0.311400    1.959200    0.553000
H      0.863400   -0.687300   -0.499500
H      0.351200   -0.406300    1.163800
H     -1.454800   -0.267300   -1.297700
H     -2.112600   -2.578300   -0.651300
H     -0.994900   -2.510700    0.737100
H     -2.777300   -1.379400    2.051700
H     -4.805100   -0.391100    0.587900
