15
gdb_13753
C      0.035900    1.292300   -0.086300
C      0.024900   -0.198300    0.176400
O      0.997000   -0.910600    0.111100
N     -1.217100   -0.695500    0.602900
C     -2.496500   -0.580900   -0.029500
C     -1.811000   -1.926900    0.132900
C     -1.276500   -2.542400   -1.130200
O     -0.923300   -1.894800   -2.083000
H      1.064500    1.651400   -0.059800
H     -0.376400    1.484200   -1.083400
H     -0.575500    1.833400    0.640400
H     -3.336600   -0.333900    0.614400
H     -2.536600   -0.201700   -1.047900
H     -2.146700   -2.619200    0.900700
H     -1.247700   -3.651700   -1.137000
