18
gdb_18170
O     -0.147800    1.523600   -0.065300
C      0.045200    0.123100    0.116200
C     -1.313000   -0.537200   -0.034800
C     -1.972300   -0.653900   -1.446300
C     -2.176100   -2.158200   -1.216700
C     -0.863600   -2.838800   -0.987300
O      0.329800   -2.444900   -1.611100
C     -1.435900   -2.057100    0.147800
H      0.717300    1.942300   -0.086400
H      0.746200   -0.287700   -0.619200
H      0.445200   -0.095400    1.121100
H     -2.008200   -0.030200    0.641700
H     -2.905300   -0.094400   -1.525400
H     -1.332500   -0.391500   -2.293900
H     -3.072000   -2.714900   -1.467400
H     -0.947300   -3.917300   -0.843800
H      0.250700   -2.643600   -2.550300
H     -1.667200   -2.541500    1.090200
