15
gdb_15039
O      0.128100    0.076000   -0.027400
C      0.176100    1.265000    0.119600
C      1.477900    2.079900    0.138400
C      1.423600    3.039600    1.327000
O      0.588500    3.897600    1.441400
N      2.650500    1.245100    0.211300
C      3.030500    0.528100   -1.000200
C      3.833500    1.689000   -0.531900
H     -0.728700    1.896300    0.240200
H      1.416500    2.713000   -0.771300
H      2.207700    2.852000    2.090100
H      3.381100   -0.487300   -0.848000
H      2.419000    0.667800   -1.888700
H      3.760900    2.613600   -1.102600
H      4.782900    1.537900   -0.028000
