9
gdb_16
C     -0.011900    1.514300    0.010300
C      1.303000    0.778900   -0.006200
C      0.008700    0.007700    0.002000
H     -0.305400    2.017000    0.925300
H     -0.322800    2.026800   -0.893500
H      1.884900    0.791500   -0.921200
H      1.902300    0.781700    0.897700
H     -0.270900   -0.512900    0.911400
H     -0.288200   -0.503100   -0.907400
