12
gdb_9025
N     -0.044000    1.491600    0.079500
C     -0.020500    0.025200   -0.025400
C     -1.391000   -0.495800    0.156100
N     -2.460700   -0.907600    0.293200
C      0.565600   -0.504400   -1.264400
C      1.087600   -0.883200   -2.288000
C      1.666500   -1.312500   -3.441500
C      2.182600   -1.692400   -4.464400
H      0.910300    1.833800    0.008800
H     -0.550000    1.876100   -0.714000
H      0.569100   -0.346900    0.824100
H      2.632300   -2.030200   -5.365400
