11
gdb_21351
N      0.032200    1.331100    0.009300
C      1.283800    1.856000   -0.000000
C      2.120400    0.747200   -0.014200
N      3.418600    0.288100   -0.029300
N      3.374800   -1.000200   -0.035800
N      2.064500   -1.430400   -0.025400
C      1.240100   -0.352300   -0.011600
N     -0.049800   -0.032600    0.002700
H     -0.831300    1.849300    0.020500
H      1.452500    2.919800    0.004100
H      1.876200   -2.417800   -0.029000
