15
gdb_7925
C     -0.217000    1.546200    0.028000
C      0.065700    0.045700   -0.023800
C      0.940800   -0.445500   -1.186600
C      1.807300   -1.533900   -0.577700
O      2.495100   -2.348100   -1.107500
O      1.718200   -1.448000    0.802500
C      0.816500   -0.467900    1.191800
N      0.656400   -0.095100    2.380500
H      0.715900    2.118900    0.025700
H     -0.813300    1.856900   -0.834600
H     -0.761200    1.795400    0.941000
H     -0.889400   -0.495200   -0.045800
H      0.395200   -0.835200   -2.046900
H      1.608300    0.343900   -1.552400
H      1.272200   -0.603200    3.016800
