16
gdb_16496
O     -0.023800    1.487200    0.125000
C     -0.001500    0.077700    0.089500
C      0.210200   -0.736700    1.408300
C     -0.846900   -0.158400    2.388200
C     -1.882400   -0.764900    1.444600
C     -0.877000   -1.746900    0.870000
C     -1.349500   -0.605900    0.007900
O     -2.168700   -0.710900   -1.095200
H      0.881400    1.810700    0.082900
H      0.658000   -0.299500   -0.704000
H      1.214000   -0.995800    1.738400
H     -0.827400   -0.674300    3.352200
H     -0.842000    0.926000    2.534800
H     -2.941200   -0.931900    1.598000
H     -0.896600   -2.814300    0.713500
H     -2.698900    0.092000   -1.149900
