19
gdb_15877
C     -0.210000    1.483900    0.095400
C     -0.043200   -0.029800    0.156900
C      0.961300   -0.630000   -0.862400
N      1.974100   -0.703600    0.205700
C      2.879000   -1.831200    0.238000
C      0.946200   -0.583600    1.247400
C      1.300800    0.320000    2.407500
O      0.670000    0.381800    3.432100
H      0.759300    1.989100    0.035200
H     -0.789600    1.766000   -0.789800
H     -0.738400    1.862800    0.976000
H     -1.018100   -0.519200    0.178500
H      0.642900   -1.619100   -1.230000
H      1.243800   -0.008800   -1.720500
H      3.541600   -1.799400   -0.633200
H      3.504600   -1.782700    1.135700
H      2.356800   -2.806600    0.236600
H      0.583300   -1.544800    1.647400
H      2.196500    0.957000    2.224400
