15
gdb_12803
O      0.050900    1.404700   -0.222400
C      0.022700    0.025700    0.017600
C     -0.479900   -0.878900   -1.090600
C     -1.338500   -0.571900    0.116800
O     -1.591800   -1.591200    1.056300
C     -0.519900   -2.083600    1.729200
N      0.679400   -1.689800    1.744400
C      1.058700   -0.494200    1.002100
H      0.792600    1.588300   -0.810200
H     -0.767000   -0.414500   -2.027200
H     -0.060200   -1.876700   -1.168800
H     -2.204900    0.066600   -0.000200
H     -0.828300   -2.946700    2.315300
H      2.018600   -0.690200    0.504800
H      1.243100    0.309800    1.725600
