18
gdb_15146
O      0.282200    0.119000    0.260300
C      0.388300    1.298900    0.411100
O      0.661800    2.143700   -0.598200
C      0.809700    3.537700   -0.293600
C      2.270700    3.962800   -0.413400
C      2.446700    5.449800   -0.192700
C      2.564100    6.008400    1.206500
C      3.762600    6.001600    0.290500
H      0.267400    1.818200    1.383200
H      0.184500    4.078000   -1.011300
H      0.424100    3.746900    0.712500
H      2.866200    3.403600    0.319300
H      2.640000    3.673300   -1.404300
H      1.909500    6.073300   -0.903800
H      2.088500    6.956900    1.428900
H      2.560200    5.306600    2.034700
H      4.559100    5.296300    0.503800
H      4.105000    6.945800   -0.117600
