15
gdb_11649
O      0.162900    1.448700    0.079600
C      0.038300    0.058700    0.034000
C     -0.084600   -0.683200    1.382500
C     -1.521200   -0.123500    1.534600
C     -1.381400   -0.633100    0.068000
N     -0.706600   -1.866900    0.659200
C     -2.362200   -0.688800   -0.973900
C     -3.165800   -0.703700   -1.869200
H      0.029000    1.796500   -0.808400
H      0.729500   -0.403200   -0.686600
H      0.675200   -0.818400    2.150800
H     -2.190900   -0.714200    2.158900
H     -1.621400    0.951700    1.664700
H     -0.037700   -2.242800   -0.024200
H     -3.884600   -0.728200   -2.650700
