17
gdb_7475
O      0.061900    1.547600   -0.306900
C     -0.020500    0.182100    0.015700
C      0.842300   -0.658900   -0.955100
C      2.246800   -0.262600   -0.881600
N      3.338800    0.105300   -0.787200
C      0.162200   -0.225600    1.510100
C     -1.124300   -1.088900    1.394000
C     -1.479800   -0.328500    0.086700
H      0.981000    1.831000   -0.221100
H      0.756200   -1.726700   -0.727500
H      0.483100   -0.503800   -1.978100
H      1.095200   -0.719800    1.792300
H      0.013000    0.648000    2.148800
H     -0.906200   -2.145800    1.219300
H     -1.840500   -1.019600    2.213900
H     -2.148800    0.515400    0.267400
H     -1.854400   -0.904300   -0.763500
