15
gdb_21175
C      0.089400    1.404600    0.033000
N      0.011900   -0.044400    0.142400
C     -1.241600   -0.624000    0.030800
C     -2.510000   -0.070900   -0.000000
C     -3.363000   -1.200100   -0.040900
O     -4.710800   -1.143100   -0.092400
N     -2.719700   -2.350900   -0.042200
N     -1.395900   -1.972800   -0.024900
H      1.130800    1.713300    0.147900
H     -0.293300    1.794100   -0.922500
H     -0.489300    1.860000    0.841900
H      0.718100   -0.519800   -0.402900
H     -2.786300    0.968200   -0.022200
H     -5.025300   -2.055600   -0.123200
H     -0.702400   -2.666900    0.191300
