14
gdb_5137
C     -0.397600   -0.635100   -1.113200
C     -0.109700    0.170500   -0.268700
C      0.268700    1.157800    0.736700
C      1.523700    1.914600    0.388100
N      2.072200    2.854400    1.125700
C      3.187100    3.261200    0.428100
C      3.309100    2.558100   -0.740600
N      2.233800    1.697000   -0.752800
H     -0.676900   -1.355000   -1.842600
H     -0.550100    1.873600    0.881600
H      0.407700    0.665500    1.707400
H      3.835600    4.035700    0.808400
H      4.030200    2.582900   -1.540100
H      1.994300    1.022200   -1.461200
