13
gdb_9039
C      0.034500    1.501700    0.023100
C     -0.029100   -0.047000   -0.019700
C      0.727400   -0.600100    1.202000
O      1.841700   -1.036700    1.140500
C     -1.397800   -0.533600   -0.025600
C     -2.532600   -0.948600    0.004800
C     -3.817000   -1.410800    0.029500
N     -4.910400   -1.802500    0.051600
H      1.077100    1.825900   -0.018200
H     -0.503400    1.924100   -0.828300
H     -0.420300    1.885000    0.940700
H      0.498900   -0.410100   -0.908400
H      0.167300   -0.525500    2.158800
