14
gdb_14569
C      0.018400   -1.227800   -0.004800
C     -0.022100   -0.026800    0.002100
C     -0.029000    1.429600    0.010000
C      1.409200    2.018200   -0.000600
C      1.414400    3.471400    0.007100
C      1.394600    4.681500    0.013800
C      1.377700    6.042200    0.021400
C      1.362500    7.249600    0.028200
H      0.035400   -2.289500   -0.010500
H     -0.576300    1.809200   -0.860200
H     -0.559500    1.799800    0.894400
H      1.956700    1.637000    0.869500
H      1.939900    1.646300   -0.885100
H      1.350000    8.311200    0.034300
