19
gdb_1470
C     -0.064500    1.548800   -0.101800
C      0.021000    0.024100    0.017200
C      0.713900   -0.481800    1.294900
C     -0.036200   -0.088100    2.572900
C      0.895700   -2.018800    1.209700
C      1.686000   -2.583200    2.297000
C      2.348200   -3.029100    3.196300
H      0.929600    2.006000   -0.040100
H     -0.504000    1.840200   -1.060800
H     -0.681400    1.987300    0.688100
H     -0.989600   -0.405200   -0.035000
H      0.562000   -0.369000   -0.853700
H      1.718900   -0.039600    1.335200
H     -1.065600   -0.467400    2.552600
H      0.457100   -0.504200    3.455500
H     -0.082800    0.997300    2.695500
H     -0.094000   -2.496400    1.192200
H      1.371100   -2.272200    0.253400
H      2.930000   -3.433900    3.986600
