17
gdb_10492
O      0.178800   -1.158000    1.620800
C      0.051300   -0.547400    0.342000
C     -1.407100   -0.583700   -0.049200
C     -2.328400    0.166600    0.909400
C     -2.079200    1.610100    0.914400
N     -1.862500    2.745400    0.907300
C     -1.749800   -0.602200   -1.516400
C     -1.943800   -1.843700   -0.680600
H      1.038100   -0.924000    1.983200
H      0.401900    0.495400    0.365800
H      0.645300   -1.081000   -0.416000
H     -3.377400   -0.002500    0.645200
H     -2.178900   -0.215200    1.924900
H     -2.629400   -0.055300   -1.838300
H     -0.934200   -0.584200   -2.231200
H     -1.254800   -2.669900   -0.815900
H     -2.957200   -2.146900   -0.440600
