12
gdb_20586
C      0.050600    1.499900    0.059100
C     -0.048700    0.019400    0.070200
C     -1.106300   -0.845800   -0.066800
C     -0.502700   -2.136000    0.041900
N      0.785300   -2.056700    0.225400
O      1.071900   -0.685300    0.243100
C     -2.466200   -0.517700   -0.267600
N     -3.579400   -0.244200   -0.432100
H      0.713800    1.835300   -0.744400
H     -0.937000    1.939200   -0.089900
H      0.463300    1.865200    1.004700
H     -0.980500   -3.103400   -0.010100
