14
gdb_9227
O      0.218900    1.155100   -0.521700
C      0.027400   -0.054000    0.153100
C     -1.412900   -0.514900    0.046600
O     -2.262900    0.116800   -0.531600
O     -1.610500   -1.688700    0.673500
C     -2.935200   -2.235800    0.653100
C     -2.942000   -3.535700   -0.134200
O     -3.816900   -4.352100   -0.041000
H     -0.648400    1.410100   -0.867800
H      0.672800   -0.846400   -0.253900
H      0.275900    0.034300    1.221800
H     -3.246900   -2.421000    1.683800
H     -3.623600   -1.524000    0.185900
H     -2.071300   -3.660900   -0.816000
