21
gdb_14744
C     -0.043900    1.536200    0.033100
C      0.081300    0.010600    0.000300
C      0.708400   -0.559200    1.277100
C      0.831100   -2.074100    1.240700
O      1.423900   -2.500900    2.469800
C      1.605300   -3.828100    2.607200
N      2.119300   -4.304600    3.651600
C      2.279300   -5.741400    3.717300
H      0.936700    2.010500    0.147900
H     -0.493900    1.918300   -0.888200
H     -0.669000    1.863200    0.871100
H     -0.911000   -0.434800   -0.150200
H      0.683300   -0.288600   -0.867900
H      1.705700   -0.130600    1.432200
H      0.108900   -0.277200    2.151000
H     -0.157500   -2.540200    1.121200
H      1.456700   -2.392000    0.394200
H      1.270900   -4.427200    1.744100
H      1.738200   -6.133500    4.586300
H      1.923100   -6.275300    2.820300
H      3.336900   -5.988600    3.865300
