13
gdb_9001
O     -0.337200    0.255700    0.021200
C      0.140000    1.336300   -0.193400
C      1.616900    1.563100   -0.501300
N      1.834800    2.680800   -1.390100
C      2.398200    3.844200   -0.983600
O      2.776100    4.109000    0.142300
C      2.538600    4.865500   -2.116600
O      2.179500    4.651600   -3.245500
H     -0.466500    2.270100   -0.173400
H      2.122900    1.806800    0.441600
H      2.046100    0.637100   -0.895600
H      1.589900    2.622900   -2.368900
H      3.004000    5.814200   -1.787100
