16
gdb_1281
C      0.063200    1.522600   -0.030100
C      0.272900    0.012900   -0.042900
N      0.065600   -0.539200   -1.387500
H     -0.852400   -0.277300   -1.728100
H      1.768000   -0.538600   -2.282000
C      0.259600   -1.985100   -1.479900
C      1.722000   -2.329300   -1.810900
O      2.407600   -1.284700   -2.299300
O      2.191800   -3.425100   -1.673500
H      0.746500    2.018500   -0.725500
H     -0.961700    1.782200   -0.319500
H      0.236100    1.925400    0.971600
H      1.300800   -0.224500    0.256600
H     -0.388400   -0.469100    0.696600
H     -0.023500   -2.535800   -0.573100
H     -0.348000   -2.381100   -2.300600
