20
gdb_8716
C     -0.015100    1.360600    0.036500
O      0.059300   -0.054300   -0.080500
C      0.713000   -0.608200   -1.251300
C      0.612900   -2.121100   -1.052800
C     -0.039600   -0.165300   -2.516400
O     -1.422300   -0.448300   -2.429100
C      2.180200   -0.150600   -1.283800
O      2.839700   -0.419200   -0.062100
H      0.974100    1.833200    0.084200
H     -0.583600    1.822700   -0.780500
H     -0.537900    1.557100    0.975800
H     -0.433300   -2.427600   -0.999700
H      1.082800   -2.641200   -1.892700
H      1.123800   -2.417300   -0.134900
H      0.134700    0.906600   -2.702100
H      0.352800   -0.708300   -3.382800
H     -1.671000   -0.294500   -1.509400
H      2.713900   -0.693100   -2.071500
H      2.234800    0.920400   -1.536600
H      2.188800   -0.267600    0.634100
