16
gdb_12320
C      0.085700    1.505100    0.047400
C      0.044900    0.005600   -0.021400
C     -0.079400   -0.703400   -1.153400
C     -0.064200   -2.203700   -1.184000
O      0.512100   -2.773800   -0.029800
C     -0.031800   -2.255100    1.166000
C      0.075900   -0.734100    1.264800
O      0.110200   -0.175200    2.342500
H      1.025200    1.845600    0.495500
H     -0.009600    1.950300   -0.946000
H     -0.714600    1.886200    0.689500
H     -0.201400   -0.199300   -2.110700
H     -1.094100   -2.581700   -1.339200
H      0.530900   -2.558900   -2.032600
H     -1.098400   -2.527400    1.274000
H      0.513700   -2.705600    1.997700
