16
gdb_12204
C      0.602700    1.421500   -0.145700
C      0.028000    0.039700    0.094400
O      0.594000   -0.970200   -0.789700
C      1.250400   -1.659100    0.295700
C      2.700100   -1.524700    0.280600
C      3.891800   -1.361100    0.327500
C      0.536100   -0.738300    1.342700
O      1.302400   -0.089700    2.307400
H      1.692200    1.423200   -0.052900
H      0.347000    1.761600   -1.153500
H      0.191600    2.133300    0.577100
H     -1.064100    0.055100   -0.007000
H      0.966200   -2.717300    0.328100
H      4.948600   -1.250400    0.337600
H     -0.266900   -1.259800    1.867800
H      2.188800    0.047600    1.948000
