11
gdb_576
N      0.014700   -1.074400    0.411800
C     -0.000200    0.053700    0.164000
C     -0.007300    1.478900   -0.167600
C      1.390800    2.074600   -0.204300
C      1.610000    3.490100    0.111500
O      1.944600    2.459900    1.045400
H     -0.489500    1.605900   -1.144400
H     -0.611000    2.015200    0.571700
H      2.087100    1.572100   -0.875400
H      2.453200    4.016600   -0.331200
H      0.763300    4.115900    0.390500
