17
gdb_4076
O     -0.057800    1.380400   -0.119100
N      0.069000   -0.020900   -0.065100
C     -1.061600   -0.601700    0.058600
C     -1.063600   -2.105700    0.093400
C     -1.861400   -2.635500    1.298900
C     -3.179800   -1.919900    1.441600
C     -3.417300   -0.718600    0.917500
C     -2.393500    0.097500    0.170500
H      0.861800    1.660800   -0.168400
H     -1.547700   -2.470800   -0.823400
H     -0.034700   -2.472200    0.092900
H     -2.027300   -3.713100    1.184400
H     -1.271900   -2.520400    2.219800
H     -3.961200   -2.424300    2.004400
H     -4.392000   -0.254300    1.046500
H     -2.246900    1.067800    0.657800
H     -2.762600    0.344000   -0.837300
