13
gdb_14223
O     -0.082000    1.322100   -0.003800
C      0.038600   -0.039100   -0.026500
C      0.838600   -0.939100   -0.967400
N     -0.066600   -2.078800   -0.506600
C     -1.053300   -1.023500    0.001800
C     -0.221000   -0.919500    1.276500
C      0.395500   -2.216500    0.913200
O      0.999400   -3.102000    1.428100
H      0.713300    1.701700    0.388000
H      0.656500   -0.711200   -2.020700
H      1.904800   -1.114000   -0.789200
H     -2.121300   -1.030200   -0.151700
H     -0.452700   -0.446100    2.221400
