20
gdb_14420
C     -0.000300    1.609800   -0.007600
C      0.096200    0.088900   -0.004300
C      0.811000   -0.666300   -1.125100
C      2.299000   -0.798500   -0.735100
C      2.487100   -0.129200    0.622500
C      1.068400   -0.660600    0.960500
C      1.265500   -1.754100   -0.181800
C      1.133800   -3.240400   -0.205200
H      0.968300    2.084700   -0.185800
H     -0.680500    1.950300   -0.796500
H     -0.390200    1.982900    0.946700
H     -0.904900   -0.341400    0.121500
H      0.503100   -0.779800   -2.158100
H      3.047200   -1.006500   -1.490500
H      3.250600   -0.646900    1.210700
H      2.664200    0.950700    0.676800
H      0.778700   -0.853000    1.992700
H      0.118200   -3.562600    0.054700
H      1.357200   -3.631900   -1.204100
H      1.823000   -3.721400    0.499300
