17
gdb_13540
C     -0.041100    1.436100   -0.253400
C      0.082000   -0.017300    0.247600
C      0.766600   -0.079600    1.543500
N      1.291800   -0.128000    2.571900
C     -1.291700   -0.669400    0.360100
O     -1.912700   -1.016700   -0.874000
C     -1.579000   -2.076000    0.039900
C     -0.565700   -3.097600   -0.406300
H      0.943800    1.894400   -0.367400
H     -0.548200    1.435300   -1.221100
H     -0.623200    2.040800    0.447500
H      0.681000   -0.584300   -0.471400
H     -1.949900   -0.166200    1.071600
H     -2.454100   -2.502500    0.533900
H      0.289100   -2.642300   -0.910300
H     -0.201500   -3.668700    0.454000
H     -1.029500   -3.801300   -1.104800
