13
gdb_2633
O      0.569800    1.023000   -1.522400
C      0.259300    1.535000   -0.467400
N      1.097700    1.658500    0.596600
C      2.453400    1.141300    0.563100
C      3.379100    2.003200   -0.328200
C      4.754600    1.516200   -0.306800
N      5.837200    1.114600   -0.264600
H     -0.744800    1.955000   -0.263800
H      0.762500    2.113900    1.429700
H      2.836800    1.107300    1.584800
H      2.436600    0.121100    0.170200
H      2.996700    1.978500   -1.352700
H      3.363500    3.045000    0.009400
