15
gdb_11163
N     -0.034500    1.284500   -0.084100
C     -0.040400    0.024400   -0.053600
C     -1.261400   -0.867600   -0.097900
C     -0.683600   -2.221900   -0.524000
C      0.743300   -2.154700    0.069500
O      1.090300   -0.753000    0.015200
C      0.821000   -2.652400    1.441900
C      0.871800   -3.072900    2.566200
H      0.920900    1.641200   -0.023700
H     -1.696400   -0.922800    0.905900
H     -2.018000   -0.463600   -0.770100
H     -1.241600   -3.083100   -0.156500
H     -0.613500   -2.288500   -1.613400
H      1.473900   -2.679700   -0.552700
H      0.925900   -3.440700    3.561400
