11
gdb_23785
N     -0.011600    1.364800    0.173200
C     -0.020600   -0.005500    0.059500
C     -1.215000   -0.758000    0.042300
N     -1.180000   -2.073600   -0.009800
C      0.044000   -2.592000   -0.034300
F      0.114300   -3.907900   -0.078100
N      1.195100   -1.954400   -0.026200
N      1.162000   -0.624500    0.013700
H      0.881900    1.788700   -0.032200
H     -0.804700    1.864200   -0.197100
H     -2.191000   -0.277300    0.069400
