14
gdb_3753
C     -0.041100    1.426500    0.030000
N     -0.038500   -0.020700   -0.001300
N      0.005100   -0.703300   -1.138700
C      0.053000   -1.973900   -0.735700
C      0.040200   -2.012800    0.669800
C      0.070000   -3.176400    1.606700
N     -0.015300   -0.750800    1.109600
H      0.950600    1.809800    0.289000
H     -0.322300    1.779000   -0.961400
H     -0.762300    1.769000    0.773800
H      0.086900   -2.780600   -1.451100
H      0.956700   -3.798100    1.444200
H      0.083200   -2.822800    2.639600
H     -0.806700   -3.819700    1.475900
