13
gdb_2077
O      0.017500   -0.000400    0.374800
C     -0.026900    1.137200   -0.000300
C     -1.322300    1.931800   -0.111400
C     -1.196400    3.169200   -0.998000
O      0.008400    3.849000   -0.668400
C      1.101100    3.056400   -0.969400
O      1.127000    1.802500   -0.266800
H     -2.108200    1.252900   -0.449900
H     -1.575400    2.237600    0.910500
H     -1.189000    2.892000   -2.064000
H     -2.015700    3.871900   -0.833500
H      1.142100    2.827300   -2.046700
H      2.000900    3.590100   -0.660200
