18
gdb_14212
C     -0.037200    1.407800   -0.030500
C     -0.018300   -0.082000    0.007700
O      0.957200   -0.787000   -0.769800
C      0.194800   -1.993200   -0.489600
C      0.454700   -2.249800    1.015800
C     -0.346100   -0.967600    1.233200
C     -1.075500   -1.131900   -0.107000
C     -2.516000   -1.152100   -0.499300
H      0.892400    1.818400    0.378300
H     -0.150800    1.772900   -1.056200
H     -0.868400    1.793500    0.567700
H      0.293100   -2.758800   -1.257200
H     -0.086800   -3.128200    1.377900
H      1.503700   -2.288700    1.326600
H     -0.735500   -0.555500    2.156600
H     -3.053900   -0.320500   -0.030900
H     -2.639300   -1.058700   -1.584300
H     -3.009200   -2.079200   -0.184600
