18
gdb_19662
O      0.065000    1.491500   -0.059000
C      0.019200    0.088000    0.034000
C      0.138600   -0.629300    1.414700
C     -0.924000    0.125300    2.237000
C     -2.113400   -0.330400    1.364000
C     -2.082400   -1.866500    1.585200
C     -0.769100   -1.779700    0.794700
C     -1.353400   -0.568700   -0.014700
H      0.985200    1.770600   -0.012700
H      0.680400   -0.384300   -0.707500
H      1.106700   -0.838300    1.869900
H     -1.010600   -0.217400    3.271800
H     -0.755000    1.203500    2.223700
H     -3.040100    0.239000    1.413600
H     -2.078300   -2.238800    2.615200
H     -2.848000   -2.392200    1.006500
H     -0.272700   -2.630900    0.331200
H     -1.948900   -0.674400   -0.920200
