15
gdb_7072
C     -0.135600    1.649300    0.072500
C     -0.001400    0.134600   -0.012600
C     -1.374000   -0.558700   -0.131700
C     -1.263700   -2.013900   -0.079600
N     -1.145200   -3.161600   -0.021600
O      0.767400   -0.181600   -1.178400
C      1.823400   -1.021500   -1.057700
O      2.513400   -1.313000   -1.983700
H      0.852800    2.110200    0.135300
H     -0.640200    2.041000   -0.815500
H     -0.710000    1.936400    0.958000
H      0.515100   -0.249500    0.876600
H     -2.027400   -0.222300    0.680300
H     -1.842000   -0.264000   -1.076900
H      1.965900   -1.385300   -0.022600
