18
gdb_9393
C      0.034400    1.379700    0.027500
O      0.010400   -0.027600    0.044800
C     -1.295500   -0.554300   -0.021200
C     -1.178100   -2.074700   -0.022900
C     -2.550300   -2.770100   -0.031700
N     -3.305300   -2.423200   -1.239300
C     -2.383500   -4.230600    0.144300
N     -2.277200   -5.378100    0.239800
H      1.081100    1.689300    0.074500
H     -0.416500    1.785400   -0.891900
H     -0.502000    1.808500    0.889000
H     -1.892700   -0.219900    0.846400
H     -1.817600   -0.206200   -0.924300
H     -0.599200   -2.395300   -0.896700
H     -0.617400   -2.392200    0.861400
H     -3.129000   -2.410100    0.828300
H     -2.835300   -2.804400   -2.056400
H     -4.226300   -2.850400   -1.211900
