13
gdb_82
C     -0.027800    1.534200    0.006500
C      0.083400    0.012200    0.052600
O      0.958600   -0.482000   -0.966900
C      0.697700   -0.495200    1.359500
O      2.022500   -0.028400    1.522200
H      0.943300    1.988400    0.218400
H     -0.373200    1.873500   -0.977200
H     -0.747700    1.892600    0.749300
H     -0.916700   -0.437000   -0.060400
H      0.767300   -0.014100   -1.785000
H      0.116500   -0.133500    2.213900
H      0.658100   -1.595600    1.362700
H      2.463800   -0.227600    0.687000
