19
gdb_19162
O      0.126200    1.244900    0.785300
C     -0.120300   -0.131400    0.551500
C     -1.550700   -0.445100    0.121400
C     -2.667100    0.397700    0.690600
C     -2.279500    0.514100   -0.771400
N     -1.659500   -1.865200   -0.137900
C     -2.074100   -2.736200    0.961800
C     -2.960800   -2.511900   -0.212300
H      0.233600    1.675700   -0.067600
H      0.568300   -0.549300   -0.196300
H      0.084100   -0.640100    1.500800
H     -3.621300   -0.057600    0.931300
H     -2.372900    1.208700    1.346500
H     -1.780900    1.421700   -1.095600
H     -2.953000    0.090400   -1.508900
H     -1.517900   -3.663000    1.069000
H     -2.371700   -2.264100    1.896200
H     -3.859200   -1.921000   -0.049800
H     -3.055900   -3.268600   -0.986300
