18
gdb_13690
O     -0.086700    1.477000    0.444900
C     -0.005700    0.101400    0.205000
C     -0.690600   -0.861000    1.143800
C     -1.267300   -0.584800   -0.233700
C     -2.558900    0.191400   -0.379200
C     -3.803500   -0.687700   -0.151900
C     -5.083200    0.073800   -0.404700
O     -5.986600    0.195100    0.382100
H      0.458200    1.677500    1.212800
H      0.925800   -0.222800   -0.259200
H     -0.229300   -1.821500    1.345900
H     -1.213000   -0.420500    1.987600
H     -1.135000   -1.375800   -0.968200
H     -2.559100    1.028600    0.324800
H     -2.604800    0.635600   -1.382400
H     -3.780000   -1.532900   -0.856100
H     -3.828900   -1.094600    0.862800
H     -5.140200    0.545800   -1.415100
