15
gdb_18309
N      0.093200    1.379600    0.020900
C      0.081200    0.112800    0.077000
C      1.195300   -0.977000   -0.020500
N      0.599700   -2.278300    0.386600
C     -0.631500   -1.981700    0.506800
C     -2.001300   -2.392600    1.032100
C     -2.357300   -0.860300    0.903400
N     -1.039500   -0.687900    0.253400
H      1.044700    1.722700   -0.107600
H      1.575200   -1.033700   -1.047700
H      2.041400   -0.730000    0.628900
H     -2.572500   -3.045200    0.369700
H     -2.006500   -2.801600    2.042900
H     -3.203300   -0.608100    0.261600
H     -2.442000   -0.334200    1.858000
