15
gdb_18661
O      0.009800   -0.022300   -0.177400
C      0.008100    1.181600   -0.006800
N     -1.176400    1.884200    0.140900
C     -1.296200    3.274000    0.066800
C     -0.235900    4.081900   -0.025500
C      1.136700    3.534200    0.021300
C      1.592300    2.819300    1.269800
C      1.250900    2.005500    0.040100
H     -2.005200    1.311900    0.081900
H     -2.315800    3.639400    0.083800
H     -0.380200    5.151900   -0.106800
H      1.897500    4.073200   -0.534200
H      2.642000    2.868800    1.534900
H      0.908500    2.792400    2.110600
H      2.075800    1.531000   -0.477100
