15
gdb_18689
O      0.039200    0.004500   -0.409600
C      0.008100    1.179000   -0.098000
N     -1.150300    1.849600    0.189500
C     -1.278200    3.304400    0.152000
C     -0.133500    3.984900    0.909200
C      1.216800    3.378100    0.555800
O      1.640800    2.306300    1.396400
C      1.273200    1.995500    0.045000
H     -1.982900    1.298600    0.033900
H     -1.299400    3.665700   -0.887600
H     -2.238100    3.572300    0.602300
H     -0.141100    5.054700    0.679900
H     -0.278400    3.875300    1.988600
H      2.016000    4.063200    0.275900
H      2.088800    1.652900   -0.587400
