20
gdb_17653
C      0.023400    1.651800    0.221100
C     -0.035200    0.137800    0.006100
C      0.887000   -0.354300   -1.152900
C      1.965000   -0.739000   -0.105000
C      0.881800   -0.649300    1.001800
C     -1.475500   -0.315000   -0.029100
C     -2.235100   -0.491400   -1.272700
O     -1.749100   -1.621400   -0.541300
H      1.058800    2.000100    0.290800
H     -0.455600    2.187300   -0.606300
H     -0.485200    1.940200    1.148700
H      0.465200   -1.237500   -1.638200
H      1.158800    0.382900   -1.913400
H      2.458900   -1.704000   -0.236400
H      2.736500    0.027900    0.002900
H      1.147000   -0.141500    1.933200
H      0.460200   -1.629200    1.240600
H     -2.044400   -0.076500    0.873500
H     -3.316900   -0.366300   -1.274700
H     -1.745400   -0.314000   -2.229200
