16
gdb_15052
C      0.148600    1.306700   -0.321500
N     -0.091000   -0.050900    0.161400
C     -1.489000   -0.451800    0.203500
C     -2.157500   -0.404900   -1.121200
N     -2.638400   -0.333100   -2.170000
C     -1.577100   -1.834800    0.831600
C     -2.514000   -2.875600    0.398400
O     -1.132300   -2.915600    0.019300
H      1.225400    1.493200   -0.328200
H     -0.246900    1.502900   -1.330200
H     -0.310300    2.022900    0.369100
H      0.422500   -0.725100   -0.397700
H     -2.023000    0.252900    0.856200
H     -1.198700   -1.847300    1.853400
H     -2.821400   -3.637500    1.112100
H     -3.209300   -2.676700   -0.413700
