15
gdb_15275
C     -0.033800   -1.223200    0.192000
C     -0.026200   -0.020900    0.143100
C     -0.014900    1.411000    0.073700
C      0.643600    2.228100    1.177600
C      1.283800    2.170500   -0.176000
C      2.577400    1.402200   -0.389300
C      3.754600    2.189500   -0.020500
N      4.676700    2.822100    0.270000
H     -0.051000   -2.283900    0.241400
H     -0.899400    1.849000   -0.379200
H      0.154900    3.145300    1.484200
H      1.110100    1.671600    1.982600
H      1.186100    3.055000   -0.797100
H      2.568400    0.477800    0.197500
H      2.673700    1.101000   -1.439000
