20
gdb_14047
C      0.205800    1.415100   -0.511700
C      1.440500    1.573100    0.416000
C      1.286500    0.072100    0.807000
C     -0.164100    0.122600    0.267200
C      2.249700   -0.890400    0.098400
C      3.354200   -1.068100    1.148100
C      2.535300   -1.061200    2.443600
O      1.408700   -0.220900    2.194000
H     -0.525900    2.225000   -0.510200
H      0.488400    1.206400   -1.547100
H      2.388400    1.893000   -0.027100
H      1.219800    2.203600    1.281200
H     -0.858500    0.327900    1.086100
H     -0.523600   -0.742500   -0.297200
H      1.747800   -1.847100   -0.090100
H      2.609600   -0.505400   -0.858700
H      3.940000   -1.981400    1.019100
H      4.043600   -0.217200    1.126800
H      2.190400   -2.074700    2.698700
H      3.088200   -0.668000    3.303700
