19
gdb_8489
C     -0.185800    1.458500    0.054500
N      0.099100    0.036500    0.010100
C      1.169600   -0.446000   -0.911000
C      1.843800   -1.143500    0.273200
O      2.345400   -2.431200    0.251100
C      2.195200   -0.124900    1.331200
C      0.753300   -0.593400    1.164800
C     -0.056600   -1.208600    2.265400
H      0.694800    2.095400    0.255100
H     -0.617400    1.773400   -0.901200
H     -0.927900    1.656500    0.834900
H      0.778300   -1.134700   -1.667100
H      1.754400    0.343300   -1.404300
H      3.295500   -2.384400    0.099600
H      2.697800   -0.543000    2.198400
H      2.509600    0.881600    1.064900
H     -0.490400   -0.444000    2.920700
H     -0.875300   -1.803300    1.849100
H      0.568800   -1.860200    2.882800
