12
gdb_3365
O      0.064200    1.406200    0.272200
C     -0.025600    0.030900    0.111200
C     -0.465800   -0.811000    1.277000
O     -1.163100   -0.123500    2.300200
C     -2.269600    0.385500    1.707500
N     -2.501100    0.105700    0.486700
C     -1.369700   -0.674700    0.043400
H     -0.560600    1.821100   -0.333300
H      0.754100   -0.420300   -0.501700
H      0.071300   -1.679700    1.633800
H     -2.890800    0.994500    2.352000
H     -1.557000   -1.438600   -0.701600
