18
gdb_19876
C     -0.208400    1.598200    0.030600
C      0.044700    0.104800    0.079500
C      1.343500   -0.597900   -0.236300
C      2.702200    0.112400   -0.130600
C      2.922600    0.404600    1.350900
O      2.009000    1.347400    1.923500
C      1.745300   -0.053400    2.108600
C      0.748900   -0.688100    1.168500
H      0.671500    2.182800    0.286800
H     -0.542300    1.878200   -0.975400
H     -1.004000    1.877500    0.730100
H     -0.806200   -0.454700   -0.308000
H      1.295900   -1.446700   -0.910900
H      3.492100   -0.559900   -0.483200
H      2.766700    1.025900   -0.732400
H      3.931400    0.443600    1.757200
H      1.796800   -0.393600    3.139500
H      0.274000   -1.595700    1.525400
