17
gdb_19940
C      0.114500    1.589900    0.142300
O      1.463100    1.535400   -0.369500
C      1.372200    0.115200   -0.605200
C      2.362600   -0.747000    0.202400
C      1.609500   -1.178600    1.452100
N      1.153600   -0.056600    2.291700
C      0.194500   -0.713400    1.377300
C     -0.021700    0.052400    0.083000
H      0.076200    2.031600    1.142200
H     -0.553200    2.133900   -0.537800
H      1.412700   -0.102200   -1.679800
H      2.657200   -1.630700   -0.374800
H      3.264700   -0.172100    0.431600
H      1.873800   -2.113900    1.936700
H      0.993000   -0.385400    3.240500
H     -0.619400   -1.291100    1.803700
H     -0.857900   -0.342700   -0.495600
