21
gdb_1315
C     -0.652000    1.238700   -0.059300
C      0.155100   -0.050500   -0.109700
C      1.564500   -0.046400   -0.759700
C      2.029800   -1.055200    0.321900
C      0.792200   -0.664600    1.192500
C      1.159200    0.382500    2.248000
C      0.019200   -1.816300    1.828500
H     -0.083000    2.058200    0.391500
H     -0.938400    1.554500   -1.069000
H     -1.574900    1.115200    0.519200
H     -0.451700   -0.831000   -0.585400
H      1.637500   -0.354100   -1.805800
H      2.057600    0.925500   -0.655600
H      1.967900   -2.089800   -0.029400
H      3.016600   -0.900100    0.767600
H      1.736400    1.210700    1.824100
H      0.266700    0.806400    2.721600
H      1.769100   -0.072600    3.036900
H      0.604200   -2.297900    2.621500
H     -0.917900   -1.466300    2.278700
H     -0.232200   -2.582800    1.087400
