17
gdb_1320
C     -0.076300    1.533900   -0.039800
C      0.003000    0.021300   -0.013500
C     -1.238300   -0.685500   -0.522500
C      1.334400   -0.630000   -0.262200
C      0.742200   -0.656100    1.144100
C      1.343800    0.097500    2.203400
C      1.842400    0.722800    3.103100
H      0.821900    1.991400    0.381200
H     -0.195700    1.893400   -1.068400
H     -0.934500    1.891100    0.540600
H     -1.438500   -0.415400   -1.566100
H     -1.130400   -1.773600   -0.475500
H     -2.119500   -0.408500    0.067300
H      1.365500   -1.570700   -0.802000
H      2.197200    0.008500   -0.415400
H      0.327800   -1.611100    1.456700
H      2.283400    1.273000    3.896500
