22
gdb_18079
C      0.043400    1.520600   -0.039900
C      0.265400    0.006400   -0.005000
C      0.542200   -0.529900    1.406400
C      0.731700   -2.033700    1.435000
C      2.009300   -2.764300    1.105300
C      3.245100   -2.027600    1.641500
C      2.640400   -2.087900    3.081600
C      1.413800   -2.821600    2.521400
H      0.922000    2.058600    0.333900
H     -0.154500    1.874000   -1.056800
H     -0.809000    1.810500    0.585000
H     -0.615300   -0.503000   -0.418600
H      1.103600   -0.261200   -0.660800
H      1.421500   -0.019900    1.816000
H     -0.294400   -0.261200    2.066700
H     -0.135100   -2.569500    1.047800
H      2.036700   -3.540700    0.349300
H      4.156600   -2.623300    1.557300
H      3.446200   -1.036000    1.222400
H      3.236000   -2.717400    3.746400
H      2.453000   -1.136000    3.589100
H      0.913600   -3.647700    3.014100
