14
gdb_19004
O     -0.060900   -0.026800   -0.107300
C     -0.019000    1.169000    0.037300
N     -1.085900    2.055800    0.173300
C     -0.480800    3.373000    0.100300
C      0.770200    3.355200   -0.841400
N      1.428000    4.354400    0.071500
C      0.789200    3.342100    0.989300
C      1.169400    2.128500    0.067500
H     -1.979900    1.840800   -0.241300
H     -1.152400    4.226900    0.124300
H      0.817800    3.428200   -1.929600
H      2.440100    4.203000    0.060300
H      0.850900    3.400500    2.077200
H      2.177700    1.719800    0.052300
