18
gdb_18125
C      0.364900    1.198500    0.534400
C      1.386100    1.959400   -0.321800
C      2.173700    0.832500   -1.024300
C      3.474300    0.372400   -0.331000
C      3.019300   -0.818700    0.522800
O      1.954100   -1.410400   -0.213000
C      1.232500   -0.406600   -0.894500
O      0.076000    0.016900   -0.205000
H      0.771400    0.952400    1.526800
H     -0.574500    1.738800    0.680500
H      0.863500    2.569900   -1.064000
H      2.023600    2.623700    0.267500
H      2.357600    1.080600   -2.070300
H      4.198100    0.035400   -1.078800
H      3.947000    1.162000    0.258800
H      3.792200   -1.579700    0.661500
H      2.679000   -0.497000    1.518500
H      0.888200   -0.854500   -1.829700
