13
gdb_1456
N      0.335800    1.405700   -0.043800
C      0.030100   -0.007200    0.039400
C     -1.469100   -0.349700   -0.027000
O     -2.328200    0.485100   -0.139400
N     -1.719600   -1.728400    0.057000
C     -2.948900   -2.385000    0.029600
O     -4.028700   -1.875500   -0.072700
H     -0.061800    1.777800   -0.902200
H     -0.159200    1.893100    0.698500
H      0.543300   -0.542000   -0.771700
H      0.437100   -0.416100    0.974500
H     -0.911700   -2.328400    0.149400
H     -2.795300   -3.480600    0.117900
