16
gdb_2305
C      0.102400    1.519700    0.053300
C      0.048400    0.065300    0.038100
C      0.003000   -1.138600    0.038800
C     -0.031300   -2.574900    0.000400
N     -0.527400   -3.291400    1.205400
C     -1.308300   -3.360600   -0.033900
C     -2.664200   -2.702700   -0.024200
H      1.128000    1.881100   -0.081600
H     -0.509400    1.952700   -0.746100
H     -0.265600    1.918500    1.005200
H      0.809800   -3.028100   -0.521700
H      0.016100   -4.141100    1.334900
H     -1.253000   -4.289900   -0.600600
H     -2.625700   -1.757600    0.521400
H     -3.003900   -2.501100   -1.045700
H     -3.402600   -3.351200    0.459000
