14
gdb_12625
O      0.118300    1.446900    0.259400
C      0.120500    0.055900    0.011200
C      0.726100   -0.678100    1.198500
C     -0.184000   -1.307800    1.954000
C     -1.526400   -1.066900    1.391600
O     -2.615200   -1.175400    1.910100
C     -1.321500   -0.511500   -0.023600
O     -2.280200    0.466700   -0.344600
H     -0.781500    1.739200    0.045900
H      0.671100   -0.159200   -0.915300
H      1.789400   -0.628400    1.405500
H     -0.013300   -1.840100    2.880800
H     -1.369800   -1.353800   -0.730400
H     -3.014800    0.329100    0.273400
