17
gdb_16283
C     -0.035900    1.622700   -0.021000
C      0.060200    0.104700    0.038400
C      1.097300   -0.661700   -0.826500
N      1.660400   -1.400300    0.360200
C      2.202000   -0.357000    1.236000
C      0.730000   -0.554100    1.258400
C      0.027900   -1.066100    2.387500
C     -0.599500   -1.462300    3.335200
H      0.939200    2.099600    0.120500
H     -0.426900    1.948200   -0.991000
H     -0.710400    2.000600    0.754600
H     -0.931100   -0.333800   -0.101200
H      0.657900   -1.365200   -1.535300
H      1.846300   -0.051800   -1.344500
H      2.755300   -0.753500    2.081200
H      2.624500    0.543700    0.794100
H     -1.143700   -1.822300    4.172900
