14
gdb_988
C      0.024800    1.502100    0.070400
C      0.018600    0.004700    0.020800
C     -0.066800   -0.804900   -1.093200
N     -0.038100   -2.108700   -0.684800
C      0.065600   -2.171300    0.689600
C      0.102000   -0.874200    1.142700
O      0.201900   -0.518900    2.459700
H      0.945300    1.900100    0.518800
H     -0.050400    1.927300   -0.934200
H     -0.816400    1.902900    0.652000
H     -0.145200   -0.545100   -2.137000
H     -0.085500   -2.906200   -1.291800
H      0.104300   -3.106500    1.221000
H      0.208700    0.441100    2.512200
