14
gdb_4265
C      0.027400    1.488300   -0.044100
C     -0.061700   -0.001900    0.030000
N     -1.133600   -0.649900   -0.197100
C     -1.140200   -2.064500   -0.107300
N     -2.186200   -2.765000   -0.324700
C      0.131700   -2.683700    0.252100
C      1.197100   -1.911800    0.469600
O      1.147900   -0.548700    0.369000
H      0.775000    1.785900   -0.786300
H     -0.945000    1.896600   -0.314300
H      0.347200    1.896300    0.920100
H     -2.958100   -2.136600   -0.559200
H      0.194100   -3.760200    0.337400
H      2.188400   -2.250700    0.740300
