14
gdb_969
C     -0.024500    1.523400    0.097600
C      0.017400    0.038000   -0.013900
C      0.052500   -0.776000   -1.125600
O      0.054000   -0.292300   -2.407400
C      0.084800   -2.133100   -0.699400
C      0.068500   -2.114900    0.677900
N      0.028000   -0.809200    1.079700
H      0.843900    1.930600    0.632200
H     -0.026700    1.956600   -0.905200
H     -0.924100    1.881900    0.615100
H      0.081300   -1.038100   -3.012100
H      0.116100   -3.011500   -1.327200
H      0.082300   -2.921600    1.392500
H      0.008500   -0.499600    2.035100
