18
gdb_19396
C     -0.119600    1.602800   -0.089800
C      0.068400    0.095100    0.020100
C      1.076200   -0.622600   -0.904300
C      2.492800   -0.262100   -0.557900
C      1.769200   -1.265600    0.303300
C      0.823500   -0.522200    1.221600
C      1.007100   -0.058800    2.598400
O      0.129200   -1.153900    2.280100
H      0.834900    2.136200   -0.042100
H     -0.602100    1.867100   -1.036900
H     -0.754300    1.978300    0.720200
H     -0.902500   -0.409200   -0.036300
H      0.822500   -1.081200   -1.851900
H      3.251200   -0.678000   -1.213600
H      2.743400    0.719200   -0.162800
H      2.111300   -2.282600    0.447300
H      1.909900   -0.328500    3.145400
H      0.509100    0.846600    2.943600
