20
gdb_6703
C     -0.075200    1.560600   -0.070400
C      0.021400    0.029400   -0.011400
C      0.730800   -0.520900   -1.255500
C      0.735700   -0.459700    1.256200
N      0.016000   -0.094800    2.475000
C      0.657200   -0.615000    3.675600
C     -0.055300   -0.188000    4.883400
N     -0.601600    0.166900    5.837100
H      0.920200    2.020200   -0.035900
H     -0.554800    1.882000   -1.000300
H     -0.669500    1.970800    0.752400
H     -0.997600   -0.377100    0.019100
H      1.758700   -0.145000   -1.323000
H      0.775700   -1.615000   -1.241200
H      0.208900   -0.219300   -2.168800
H      0.798400   -1.555500    1.229500
H      1.779800   -0.088200    1.253200
H     -0.052800    0.914400    2.549200
H      0.643900   -1.711700    3.637400
H      1.718200   -0.322100    3.787900
