18
gdb_18367
C      0.114100    1.566800    0.023500
C      0.180300    0.051800   -0.025200
O      1.077300   -0.349800   -1.064600
C      1.420700   -1.704900   -0.814300
C      1.568300   -1.815300    0.704300
C      2.753300   -1.045800    1.322900
O      1.892000    0.017900    1.782100
C      0.723200   -0.629000    1.238600
H      1.083800    1.970500    0.321100
H     -0.155100    1.964900   -0.958200
H     -0.638800    1.892900    0.747600
H     -0.821100   -0.371900   -0.225300
H      0.627600   -2.383900   -1.169900
H      2.338400   -1.927500   -1.366800
H      1.380000   -2.813000    1.099500
H      3.255600   -1.546600    2.159200
H      3.505700   -0.687000    0.609800
H     -0.041200   -0.801200    2.003100
