15
gdb_17421
C      0.012200    1.596500    0.023400
C      0.013300    0.096700    0.081800
C     -1.236700   -0.788000    0.237000
N     -0.380100   -1.881500    0.833600
C      0.880900   -1.891100    0.019900
C      0.664800   -0.898700    1.139300
C      0.831500   -0.736200   -0.935700
O      1.400300   -0.456900   -1.952900
H      1.031900    1.991300   -0.023000
H     -0.510400    1.935900   -0.877200
H     -0.490500    2.034200    0.891600
H     -1.928000   -0.446500    1.011800
H     -1.790100   -1.067000   -0.667200
H      1.463100   -2.801900    0.007100
H      1.200500   -0.787900    2.072000
