15
gdb_7722
N     -0.102600    1.299300   -0.214100
C     -0.039200    0.039900   -0.016400
N     -1.185700   -0.720600    0.068200
C     -1.172000   -1.976200    0.803400
C     -0.032100   -2.840700    0.267200
C      1.281500   -2.079500    0.238100
O      2.373300   -2.598100    0.306500
N      1.144800   -0.706400    0.108800
H      0.819600    1.711000   -0.336100
H     -2.008000   -0.141300    0.150000
H     -1.048300   -1.824000    1.887700
H     -2.132500   -2.474700    0.651100
H      0.116500   -3.742100    0.864400
H     -0.253700   -3.151600   -0.760700
H      2.015900   -0.196900    0.060900
