19
gdb_9825
C     -0.171200    1.603200    0.334300
C     -0.347600    0.116400    0.632000
C     -1.295300   -0.582500   -0.327500
O     -1.805900    0.004500   -1.261500
C     -1.608700   -2.041800   -0.089000
C     -0.659800   -2.888900    0.731000
C     -3.082700   -2.334900   -0.071400
N     -2.268200   -2.723100   -1.216400
H      0.523400    2.058500    1.045500
H      0.216100    1.754700   -0.676200
H     -1.126700    2.130300    0.396600
H      0.615500   -0.410900    0.597500
H     -0.718500   -0.045500    1.653400
H     -0.561600   -2.517800    1.756000
H     -1.032000   -3.914900    0.773100
H      0.338800   -2.918900    0.281800
H     -3.438500   -3.152000    0.551300
H     -3.763600   -1.495200   -0.178600
H     -2.397100   -2.022700   -1.948100
