18
gdb_17657
C      0.189600    1.807200    0.637900
C      0.056600    0.334800    0.274400
C      0.502800   -0.083500   -1.149400
C      1.579900   -0.907500   -0.421100
O      1.131800   -0.446800    0.871400
C     -1.277700   -0.212600    0.733000
C     -2.487200   -0.163300   -0.095100
O     -1.773900   -1.388100    0.094400
H      1.183400    2.174400    0.368200
H     -0.561600    2.408700    0.114900
H      0.057000    1.951000    1.715500
H     -0.228600   -0.671100   -1.703400
H      0.873600    0.736900   -1.765700
H      1.484200   -1.994600   -0.520700
H      2.619800   -0.620200   -0.617100
H     -1.393100   -0.215700    1.818300
H     -3.466300   -0.111200    0.378100
H     -2.435600    0.252900   -1.100700
