14
gdb_21689
N      0.032500    1.390200    0.151900
C      0.039000    0.006400    0.034700
N     -1.080400   -0.683400    0.011500
O     -0.685700   -2.025200   -0.016600
C      0.652900   -2.081500   -0.026100
C      1.193600   -0.838800    0.006300
C      2.632400   -0.445800    0.042100
O      3.413800   -1.625800   -0.029200
H      0.713900    1.853500   -0.434200
H     -0.891100    1.779000    0.007300
H      1.095300   -3.064000   -0.050800
H      2.861700    0.233200   -0.799100
H      2.839300    0.120900    0.965400
H      4.339300   -1.380000    0.055600
