12
gdb_2057
O     -0.005000    0.011500   -0.382200
C     -0.007200    1.148600    0.020100
C     -1.325200    1.858500    0.304000
O     -1.236900    3.023900    1.127800
C     -0.038400    3.649100    1.213500
N      1.103200    3.276700    0.826400
C      1.256900    1.965500    0.219000
H     -1.762500    2.144200   -0.663400
H     -2.012600    1.161000    0.788100
H     -0.167000    4.605400    1.716400
H      1.951800    1.366100    0.820900
H      1.745900    2.071000   -0.759300
