12
gdb_11147
N     -0.061100    1.292600    0.007400
C      0.001500    0.028500    0.000600
C     -1.178300   -0.942000    0.002400
N     -0.618000   -2.299200   -0.007800
C      0.651600   -2.140700   -0.014200
N      1.110500   -0.829700   -0.010100
C      1.601400   -3.217900   -0.025100
N      2.401900   -4.050900   -0.034000
H      0.860500    1.731500    0.004300
H     -1.808900   -0.801300    0.886600
H     -1.819000   -0.792300   -0.873100
H      2.077000   -0.548400   -0.014300
