19
gdb_17284
O     -0.003200    1.379500    0.105800
C     -0.028800   -0.020100    0.151800
C     -0.741500   -0.715600    1.284900
C     -1.349000   -0.682000   -0.107000
C     -2.582500    0.143700   -0.394500
N     -3.793600   -0.650400   -0.196200
C     -4.396800   -0.601100    1.130500
C     -5.031100    0.099300   -0.020600
H      0.603800    1.686500    0.787000
H      0.859200   -0.501200   -0.258600
H     -0.343400   -1.648600    1.668700
H     -1.194700   -0.071900    2.032100
H     -1.312000   -1.611200   -0.667900
H     -2.572900    1.059400    0.219100
H     -2.571700    0.465200   -1.443500
H     -4.803300   -1.536800    1.504000
H     -3.922000    0.022000    1.886800
H     -4.975400    1.187200   -0.029500
H     -5.909900   -0.314500   -0.507400
