16
gdb_5529
C      0.013600    1.588100    0.286600
C     -0.021100    0.088900   -0.059700
C     -1.393900   -0.475200   -0.147600
C     -2.125900   -0.997400   -1.173300
O     -1.676600   -1.114800   -2.456500
C     -3.404700   -1.370900   -0.642500
C     -3.357300   -1.045100    0.675800
O     -2.158800   -0.504400    0.994300
H      1.045300    1.947400    0.353600
H     -0.506100    2.176800   -0.475300
H     -0.474800    1.775400    1.247200
H      0.462600   -0.085500   -1.026200
H      0.561500   -0.467100    0.687200
H     -2.346900   -1.563600   -2.978500
H     -4.233400   -1.817200   -1.171400
H     -4.065900   -1.133900    1.482700
