17
gdb_19371
O      0.160600    1.369400    0.132700
C      0.048500   -0.035000   -0.069600
C     -1.371000   -0.506700   -0.061700
C     -2.114400   -0.946800    1.179200
C     -1.923200   -1.923800    0.047700
C     -2.864200   -1.625600   -1.156600
N     -3.743800   -0.480400   -0.807300
C     -2.346400   -0.248600   -1.253400
H     -0.335200    1.579900    0.931200
H      0.515200   -0.222200   -1.044200
H      0.625200   -0.600400    0.680800
H     -1.476900   -1.134900    2.038800
H     -3.098200   -0.556200    1.404200
H     -1.369600   -2.847700    0.155700
H     -3.139600   -2.330500   -1.929900
H     -4.344500   -0.310900   -1.613600
H     -2.120700    0.367300   -2.114200
