14
gdb_666
C     -0.006800    1.551300    0.004900
C      0.062800    0.043000   -0.067200
C      0.655100   -0.750100   -1.223100
C      1.942800   -0.092100   -1.706400
O      2.467700   -0.024900   -0.352800
C      1.325900   -0.738100    0.135300
H      0.962300    1.996100   -0.233000
H     -0.754600    1.953200   -0.687000
H     -0.276800    1.875400    1.015600
H     -0.801200   -0.475900    0.345500
H      0.118200   -1.535100   -1.738400
H      2.563500   -0.753900   -2.320900
H      1.876000    0.894500   -2.180100
H      1.496600   -1.502100    0.885800
