10
gdb_21985
O     -0.082500    0.007700    0.003800
N     -0.019000    1.231100    0.007100
O      0.993400    1.905300    0.002500
C     -1.306000    1.921000    0.017100
N     -1.349600    3.229500    0.021200
O     -2.691800    3.522100    0.030500
C     -3.407600    2.379900    0.031600
C     -2.580400    1.305300    0.023200
H     -4.479400    2.499500    0.038700
H     -2.809400    0.255100    0.021500
