13
gdb_23775
F      0.057700    0.062400    0.178800
C      0.017300    1.395000    0.058100
C     -1.177800    2.016400    0.011000
N     -1.237200    3.385900   -0.112900
C     -0.081300    4.122600   -0.188700
C      1.133900    3.534500   -0.144800
C      1.299700    2.092000   -0.015100
N      2.463200    1.537300    0.026200
H     -2.114100    1.477500    0.067200
H     -2.131800    3.841200   -0.147200
H     -0.215900    5.192600   -0.284800
H      2.033200    4.134000   -0.206200
H      2.354900    0.525600    0.118800
