11
gdb_728
C     -0.020100    1.532700    0.046600
C     -0.002600    0.043200   -0.039400
C     -0.066700   -0.839800   -1.093800
N     -0.010600   -2.116600   -0.619300
N      0.085500   -2.083900    0.676300
N      0.091100   -0.781600    1.034400
H      0.897700    1.923800    0.499400
H     -0.108100    1.961500   -0.953600
H     -0.865400    1.894900    0.642200
H     -0.148800   -0.629700   -2.148100
H      0.160000   -0.542900    2.010900
