15
gdb_3136
O      0.171100    1.383100    0.151200
C      0.078100   -0.011100   -0.116800
C     -1.332300   -0.511400   -0.084300
C     -2.049300   -0.946600    1.188300
C     -1.928800   -1.896600    0.038600
O     -2.936400   -1.641700   -0.939700
C     -2.382400   -0.317000   -1.177400
H     -0.249500    1.538700    1.003700
H      0.508400   -0.142700   -1.115900
H      0.694400   -0.598200    0.583400
H     -1.391100   -1.146700    2.029600
H     -3.026200   -0.546900    1.447000
H     -1.490700   -2.887600    0.076800
H     -3.125600    0.477200   -1.044500
H     -1.950300   -0.257100   -2.183200
