20
gdb_12819
C      0.047300    1.536300   -0.048400
C     -0.030300    0.031300    0.066800
C     -1.262800   -0.621000   -0.536900
C     -1.289700   -2.140700   -0.331300
C     -1.099700   -2.487400    1.149700
C      0.269900   -2.025800    1.677900
C      0.701200   -0.672100    1.140100
O      1.200500   -0.657600   -0.208400
H      0.980400    1.909500    0.381500
H      0.009500    1.843400   -1.099700
H     -0.792000    2.013200    0.469300
H     -2.151900   -0.167100   -0.077700
H     -1.305900   -0.374000   -1.605400
H     -2.240300   -2.542600   -0.697600
H     -0.492700   -2.599800   -0.926100
H     -1.895200   -1.999800    1.729300
H     -1.214000   -3.564300    1.313100
H      0.257100   -1.989000    2.773000
H      1.046000   -2.750400    1.401200
H      1.299100   -0.064600    1.821900
