17
gdb_16813
C      0.081300    1.578600    0.028900
C      0.008700    0.051600    0.025700
C      0.673800   -0.621000   -1.201800
C      1.208300   -1.966600   -0.696100
O      1.342500   -2.977700   -1.337400
C      1.439500   -1.819600    0.781700
N      2.173400   -0.552900    1.093300
C      0.713800   -0.593900    1.220100
H      1.125100    1.906900    0.047400
H     -0.395100    1.998800   -0.862500
H     -0.423500    1.998400    0.905800
H     -1.043000   -0.261000    0.063900
H      0.000600   -0.768500   -2.048000
H      1.527300   -0.028700   -1.550900
H      1.587300   -2.696400    1.400400
H      2.598300   -0.662800    2.011400
H      0.265500   -0.532400    2.207200
