15
gdb_8022
C     -0.175200    1.586700    0.023200
C      0.064100    0.107900    0.091500
C     -1.075800   -0.919200    0.195100
O     -0.356200   -1.673800    1.202400
C      0.739100   -0.734600    1.202900
C      1.765900   -1.055100    0.132800
N      2.836100   -1.702400    0.089000
O      1.089700   -0.349800   -0.855500
H      0.760900    2.137500    0.148700
H     -0.602300    1.858400   -0.948100
H     -0.874800    1.898800    0.803900
H     -2.016000   -0.523600    0.597600
H     -1.267300   -1.495400   -0.715700
H      1.056700   -0.425600    2.198500
H      3.235300   -1.706800   -0.851800
