15
gdb_16196
O      0.100400    0.056100   -0.126600
C      0.026400    1.255500   -0.013500
C     -1.244100    2.109300    0.072300
C     -0.708900    3.519600    0.008800
C      0.626200    3.561000   -0.037500
C      1.204500    2.198500    0.011900
C      2.436100    1.766100    0.749000
N      2.436000    1.815900   -0.707100
H     -1.932600    1.856100   -0.742900
H     -1.779700    1.888100    1.005100
H     -1.358300    4.386700    0.003600
H      1.236400    4.453600   -0.094300
H      3.040600    2.523700    1.240300
H      2.394400    0.798000    1.241700
H      2.290700    0.872200   -1.069200
