18
gdb_15247
C     -0.049200    1.559600    0.195600
C      0.060200    0.063900   -0.030300
C      0.477600   -0.562600   -1.321700
C      0.878900    0.215300   -2.557600
O      1.738500   -0.529100   -3.404500
C      1.399500   -0.680100   -0.091500
C      2.693400    0.030500   -0.024000
O      3.692600   -0.443000    0.465700
H      0.688700    2.138500   -0.362700
H     -1.040200    1.912400   -0.108900
H      0.077200    1.798600    1.256400
H     -0.694300   -0.496500    0.516100
H     -0.007700   -1.502100   -1.573000
H     -0.014900    0.420200   -3.157100
H      1.317000    1.189000   -2.300100
H      2.522500   -0.765800   -2.897200
H      1.441900   -1.654100    0.384700
H      2.715000    1.053000   -0.460600
