20
gdb_15664
C     -0.677300    1.381500   -0.022700
C      0.041400    0.025900   -0.050500
C      1.203700   -0.048800   -1.020900
C      2.213700   -0.771600   -0.542500
C      1.915300   -1.307300    0.837100
C      0.683400   -0.471700    1.286100
C      1.124100    0.665700    2.208400
O      1.680600    0.077300    3.378900
H      0.001900    2.204400    0.221400
H     -1.110200    1.597500   -1.005400
H     -1.496000    1.388700    0.704400
H     -0.707700   -0.720400   -0.359400
H      1.164300    0.410700   -2.003500
H      3.132400   -0.995700   -1.074000
H      1.679100   -2.379800    0.792300
H      2.745900   -1.206700    1.542400
H     -0.023500   -1.084100    1.854600
H      1.864400    1.299500    1.694400
H      0.264600    1.300500    2.467600
H      2.017100    0.784000    3.937000
