19
gdb_16775
O      0.325400    1.032000   -0.499100
C     -0.051000   -0.325000   -0.300800
C     -1.494900   -0.472900    0.204500
C     -2.562500   -0.035200   -0.842200
C     -3.093400   -1.320300   -1.448000
N     -2.020800   -2.222900   -1.926800
C     -2.660100   -2.465800   -0.613300
C     -1.840300   -1.950900    0.554600
H     -0.071200    1.331000   -1.322100
H      0.089600   -0.923000   -1.209400
H      0.632900   -0.710200    0.464300
H     -1.573400    0.157400    1.095500
H     -3.386900    0.499600   -0.357100
H     -2.150900    0.642700   -1.599000
H     -4.043800   -1.318900   -1.972800
H     -2.409400   -2.868400   -2.610000
H     -3.275200   -3.351900   -0.491900
H     -0.939500   -2.550400    0.727700
H     -2.445800   -2.003700    1.466400
