15
gdb_1220
C     -0.025700    1.521500    0.029100
C      0.060700    0.011000    0.132000
O      1.099500   -0.562300    0.361000
C     -1.252300   -0.749600   -0.056500
C     -1.049600   -2.252000   -0.279000
C     -2.314600   -3.035400   -0.027300
O     -2.822400   -3.805200   -0.800400
H      0.918100    1.971600    0.338300
H     -0.239400    1.806300   -1.008000
H     -0.847500    1.910000    0.640100
H     -1.848900   -0.570600    0.851700
H     -1.825900   -0.294400   -0.872500
H     -0.689100   -2.466800   -1.287800
H     -0.283100   -2.595400    0.428800
H     -2.771400   -2.847200    0.975000
