16
gdb_8763
C      0.069100    1.580800    0.012600
C     -0.008100    0.043200    0.064300
C      0.761300   -0.495200    1.182400
C      1.396000   -0.933000    2.103900
C     -1.485800   -0.451100    0.135500
O     -2.174900    0.111900    1.212000
C     -2.205600   -0.156400   -1.166600
O     -3.236200    0.471000   -1.196600
H      1.109900    1.909400   -0.022400
H     -0.445400    1.967400   -0.873400
H     -0.403400    2.005000    0.900100
H      0.415300   -0.367200   -0.864500
H      1.955000   -1.320200    2.919500
H     -1.454900   -1.551600    0.227000
H     -2.954300    0.544000    0.827900
H     -1.738800   -0.558200   -2.089800
