15
gdb_20783
C     -0.310500    1.617800   -0.163100
C      0.004500    0.141700   -0.027200
C      0.755900   -0.577100   -1.221600
C      1.888200   -0.806000   -0.225200
C      3.066800   -1.210400    0.361800
N      3.019700   -0.789200    1.666300
N      1.893500   -0.160300    1.926200
N      1.229700   -0.182100    0.760600
H      0.558500    2.171500   -0.530100
H     -1.137600    1.758100   -0.866000
H     -0.607100    2.040400    0.801000
H     -0.857300   -0.421600    0.340500
H      0.265100   -1.477800   -1.595400
H      0.992100    0.083500   -2.058800
H      3.919200   -1.746200   -0.019400
