18
gdb_12558
O     -0.319300    1.496700   -0.336000
C     -0.026300    0.138100   -0.026300
C     -1.393500   -0.546000    0.107100
O     -1.317500   -1.831900    0.681400
C     -0.924100   -2.868000   -0.198400
C      0.584600   -2.932300   -0.461000
C      1.158600   -1.772500   -1.239800
C      0.887200   -0.479600   -1.063700
H      0.509200    1.984700   -0.359100
H      0.457900    0.065100    0.963500
H     -2.005900    0.061800    0.779600
H     -1.884900   -0.576000   -0.877200
H     -1.242500   -3.798700    0.283600
H     -1.463700   -2.778600   -1.154600
H      1.096700   -3.023700    0.507900
H      0.788000   -3.865100   -1.000200
H      1.879300   -2.032700   -2.011900
H      1.385300    0.245900   -1.705300
