19
gdb_6141
C     -0.178400    1.503900   -0.009700
C      0.017800   -0.014400    0.010000
C     -1.299500   -0.740100   -0.241100
C      1.222100   -0.461800   -0.880200
C      2.123600   -0.494100    0.393500
C      0.826600   -0.485100    1.261800
C      3.042200   -1.607700    0.551000
N      3.757100   -2.508800    0.673100
H      0.759400    2.041100    0.169300
H     -0.569300    1.833600   -0.978700
H     -0.890800    1.814600    0.762700
H     -1.720600   -0.465800   -1.215200
H     -1.164600   -1.826500   -0.228000
H     -2.041800   -0.484600    0.524000
H      1.080900   -1.463000   -1.293500
H      1.538100    0.211800   -1.680000
H      2.682100    0.438400    0.506800
H      0.833700    0.170200    2.135800
H      0.551100   -1.494200    1.576400
