19
gdb_7277
C      0.012100    1.536200    0.154900
C     -0.041100    0.015900   -0.008900
O     -1.386100   -0.451000   -0.095000
C      0.692000   -0.517900   -1.254400
C      0.836900   -2.043700   -1.192000
C     -0.034700   -0.077700   -2.550700
C      0.693700   -0.453800   -3.759200
N      1.283800   -0.750900   -4.707800
H      1.046800    1.891800    0.194700
H     -0.503400    2.050100   -0.661500
H     -0.473900    1.834500    1.091000
H      0.454700   -0.438000    0.865100
H     -1.864100   -0.144900    0.681500
H      1.691700   -0.067300   -1.257300
H      1.343100   -2.429800   -2.080700
H      1.422300   -2.339100   -0.315600
H     -0.146200   -2.516800   -1.116700
H     -1.032400   -0.526100   -2.577600
H     -0.175700    1.007700   -2.569300
