19
gdb_9885
C     -0.329900    1.350000   -0.491000
C     -0.036800   -0.059000   -0.013800
C     -1.165300   -1.056700   -0.212800
N     -2.349900   -0.726600    0.567500
C     -3.581600   -0.537100    0.023400
O     -3.855900   -0.640500   -1.153500
C      1.367600   -0.587700   -0.161100
C      0.836800   -0.239800    1.209800
H      0.517200    2.015400   -0.299000
H     -0.533500    1.365400   -1.567700
H     -1.206000    1.766800    0.016900
H     -1.490900   -1.080200   -1.256300
H     -0.818000   -2.064800    0.049200
H     -2.244400   -0.594400    1.561300
H     -4.331200   -0.271600    0.796000
H      1.503000   -1.636800   -0.403200
H      2.110600    0.067000   -0.603200
H      1.223400    0.648000    1.698800
H      0.619200   -1.058700    1.889000
