11
gdb_3843
N     -0.077100    1.286100    0.306200
C     -0.008800    0.049000   -0.016600
N      1.138200   -0.703900   -0.265300
N      1.174900   -2.007800   -0.603900
C      0.027100   -2.597400   -0.702000
N     -1.211900   -2.016300   -0.493300
C     -1.216000   -0.768600   -0.170700
H      0.845500    1.719800    0.374600
H      2.046800   -0.268500   -0.195800
H      0.039500   -3.645400   -0.973400
H     -2.162600   -0.261700    0.005000
