17
gdb_10091
C      2.643900   -1.171600    1.334300
C      2.688800   -0.256700    0.113400
C      2.845600    1.201200    0.438800
O      2.758200    1.991700   -0.729500
C      3.877500    2.630400   -1.158100
O      3.879600    3.340900   -2.114700
N      2.981200    1.658800    1.599200
C      3.062500    3.078100    1.885000
H      2.524100   -2.212700    1.021900
H      3.561100   -1.087300    1.921900
H      1.810900   -0.906900    1.990000
H      3.509100   -0.539200   -0.561200
H      1.779400   -0.357100   -0.493300
H      4.759600    2.403800   -0.532800
H      2.369300    3.302400    2.701900
H      4.067400    3.315000    2.251600
H      2.830300    3.734700    1.038500
