15
gdb_18101
C     -0.031200    1.411900   -0.028900
C      1.453000    1.902500    0.066900
C      2.167200    0.737900   -0.633900
N      3.485100    0.205200   -0.239000
C      3.284300   -1.044000   -0.044800
N      1.966100   -1.520100   -0.205200
C      1.199600   -0.366900   -0.290500
N      0.012100   -0.075200    0.045700
H     -0.661600    1.797800    0.776800
H     -0.487300    1.728500   -0.977300
H      1.619200    2.876700   -0.397600
H      1.762600    1.956400    1.115500
H      2.193100    0.916200   -1.719900
H      4.063700   -1.752300    0.218000
H      1.636400   -2.354000    0.257300
