16
gdb_20795
C      0.123600    1.591300   -0.280500
C     -0.006300    0.102000    0.078500
C     -1.425800   -0.358500    0.159500
C     -2.188700   -0.780900    1.209200
C     -1.927700   -0.965800    2.660700
O     -3.411300   -1.071000    0.751400
N     -3.394800   -0.811000   -0.654700
N     -2.244300   -0.405700   -0.952300
H      1.175700    1.879200   -0.362800
H     -0.365200    1.799100   -1.236200
H     -0.345600    2.221900    0.481100
H      0.519200   -0.498900   -0.672900
H      0.488500   -0.097800    1.035100
H     -2.587100   -0.329400    3.259600
H     -2.109300   -2.002900    2.960200
H     -0.892800   -0.712200    2.898000
