22
gdb_5818
C     -0.104400    1.556000   -0.086000
C      0.054900    0.021400   -0.010900
C      0.687600   -0.461000   -1.240200
C      1.207800   -0.825800   -2.261800
C      0.788700   -0.507400    1.274900
C      0.043700   -0.020000    2.531400
C      0.760700   -2.047300    1.255900
C      2.249300   -0.026000    1.321300
H      0.866600    2.057500   -0.108200
H     -0.637900    1.828900   -1.000100
H     -0.674400    1.936700    0.764500
H     -0.957400   -0.407300    0.023000
H      1.660000   -1.158000   -3.163200
H     -1.017700   -0.291400    2.497400
H      0.474200   -0.482200    3.425900
H      0.112900    1.063700    2.659800
H      1.270900   -2.443300    0.374000
H      1.254600   -2.450900    2.146100
H     -0.268800   -2.423500    1.246600
H      2.317100    1.063900    1.394200
H      2.758200   -0.444100    2.196300
H      2.797100   -0.340800    0.428400
