17
gdb_6648
C      0.012800    1.531900   -0.043800
C     -0.006400    0.019600    0.082000
O     -0.047500   -0.536900    1.154300
C      0.029100   -0.766800   -1.226500
C      0.007200   -2.280000   -1.018500
C      0.044200   -3.039400   -2.358700
C      0.024000   -4.490500   -2.184200
N      0.007700   -5.636000   -2.033800
H      0.914100    1.860400   -0.573500
H     -0.844500    1.877900   -0.632100
H     -0.015700    1.985800    0.947300
H     -0.820000   -0.439600   -1.843500
H      0.923500   -0.456800   -1.785800
H      0.857500   -2.580300   -0.400200
H     -0.887900   -2.563100   -0.458100
H     -0.811400   -2.756100   -2.983600
H      0.944800   -2.773500   -2.925300
