12
gdb_16273
O     -0.214100    0.009800    0.095300
C     -0.066800    1.199800   -0.008700
C      1.237900    1.884900   -0.009100
C      1.397300    3.384400    0.358600
C      1.811300    2.930600   -0.973700
O      3.115300    2.317100   -0.914200
C      2.628000    1.292700   -0.093200
O      3.215200    0.341400    0.289000
H     -0.933700    1.891100   -0.122600
H      0.449300    3.911700    0.426300
H      2.145400    3.664800    1.092100
H      1.446500    3.244000   -1.941400
