17
gdb_5624
C     -0.092200    1.364100    0.006500
O     -0.035900   -0.045500    0.013500
C      0.633900   -0.595700    1.062500
C      1.266700    0.023100    2.120400
N      1.790200   -0.983400    2.907000
C      1.496200   -2.203200    2.360000
C      0.773200   -2.009000    1.204300
C      0.232100   -3.045000    0.269300
H      0.914100    1.804600   -0.038500
H     -0.653700    1.656300   -0.883000
H     -0.603000    1.748700    0.900900
H      1.388500    1.060100    2.379400
H      2.309700   -0.837200    3.752600
H      1.820000   -3.118900    2.829400
H     -0.858700   -2.981300    0.181200
H      0.635900   -2.927800   -0.743000
H      0.481700   -4.052500    0.614700
