14
gdb_9565
C     -0.065300    1.545200   -0.102900
C     -0.007300    0.036900    0.011100
N      1.309100   -0.588300   -0.200700
C      0.717500   -0.653100    1.149700
C      1.345800    0.094700    2.201600
C      1.848700    0.706600    3.105400
C     -1.165500   -0.670400   -0.494300
N     -2.082800   -1.235900   -0.915100
H      0.835500    1.977000    0.334700
H     -0.126100    1.842400   -1.153400
H     -0.940600    1.937900    0.421800
H      1.213800   -1.489900   -0.663100
H      0.291300   -1.604600    1.458900
H      2.300900    1.246800    3.900600
