16
gdb_20549
C     -0.178700    1.618900   -0.034600
C      0.040300    0.102100   -0.037000
C     -1.284700   -0.673800    0.091000
C      0.792900   -0.366300   -1.247900
N      1.105300    0.408800   -2.253200
O      1.784100   -0.446300   -3.136100
C      1.797400   -1.641500   -2.547600
N      1.214800   -1.678900   -1.394800
H      0.767900    2.161300   -0.099400
H     -0.795500    1.927100   -0.883900
H     -0.688500    1.919600    0.885300
H      0.664000   -0.168900    0.825700
H     -1.957600   -0.429800   -0.737900
H     -1.110000   -1.752300    0.085300
H     -1.787100   -0.407200    1.025500
H      2.284900   -2.445900   -3.079100
