19
gdb_10297
C     -0.082300    1.556000    0.080800
C     -0.024200    0.023900   -0.000600
C     -1.438200   -0.572200    0.022900
C      0.758500   -0.444300   -1.258900
C      2.212300    0.092300   -1.339600
O      2.901100   -0.375700   -2.475300
C      0.824300   -1.907900   -1.329000
N      0.941200   -3.057500   -1.382300
H      0.904800    2.009400    0.203800
H     -0.541000    1.980600   -0.820000
H     -0.691600    1.861900    0.936500
H      0.520000   -0.350000    0.876800
H     -2.027100   -0.215800   -0.830500
H     -1.418100   -1.664700   -0.013800
H     -1.962700   -0.274100    0.935700
H      0.229000   -0.100300   -2.157300
H      2.183700    1.179800   -1.432000
H      2.737600   -0.155300   -0.404100
H      2.996600   -1.332300   -2.398000
