14
gdb_5426
N      0.091100    1.374600    0.157200
C     -0.006600   -0.009200    0.042200
C     -1.108500   -0.866900    0.021300
C     -2.497300   -0.475400   -0.008300
O     -3.447700   -1.233000   -0.030400
C     -0.588300   -2.208600   -0.007900
C      0.768600   -2.127700   -0.016900
N      1.115700   -0.777700    0.014200
H      0.695900    1.803000   -0.534000
H     -0.812600    1.827400    0.145500
H     -2.669600    0.630400   -0.016900
H     -1.189800   -3.102500   -0.036300
H      1.533900   -2.885300   -0.048700
H      2.050300   -0.419400    0.114700
