15
gdb_12254
N      0.220100    1.474200    0.218800
C      0.044300    0.052900    0.045200
C     -1.364900   -0.570400    0.225000
C     -2.566800    0.352100    0.228800
O     -3.767400   -0.374700    0.067200
O     -1.235200   -1.227900   -1.089500
C     -0.043200   -0.592400   -1.357200
O      0.572700   -0.597500   -2.373200
H      1.204600    1.708100    0.270900
H     -0.165600    1.997000   -0.560100
H      0.784100   -0.474900    0.653000
H     -1.459900   -1.333200    1.001400
H     -2.626100    0.868000    1.191800
H     -2.451600    1.120200   -0.552600
H     -3.688600   -0.868500   -0.757500
