18
gdb_18484
C     -0.002500   -1.179900   -0.190800
C     -0.033400    0.006300    0.003100
C     -0.027500    1.447200    0.228100
C      1.365700    2.068900    0.040600
C      2.009000    2.094900   -1.388500
C      2.180500    3.614300   -1.261300
C      0.841800    4.264900   -1.071700
C      1.495700    3.597300    0.109000
H      0.009900   -2.228000   -0.359100
H     -0.743500    1.924600   -0.452300
H     -0.383600    1.663200    1.244300
H      2.055700    1.594900    0.743700
H      2.949000    1.542000   -1.431500
H      1.371200    1.758400   -2.212900
H      3.051900    4.176400   -1.573600
H      0.847600    5.349800   -1.038700
H     -0.044900    3.845300   -1.541900
H      1.744700    4.157300    1.002900
