17
gdb_16216
O      0.067600   -0.010900   -0.004800
C      0.046500    1.200000    0.080900
N     -1.069400    1.985800    0.218500
C     -0.819300    3.412200    0.074700
C      0.697500    3.523900    0.371400
C      1.226600    2.135200    0.046400
C      2.573900    1.604700    0.455200
C      2.288100    1.845200   -0.997800
H     -1.982300    1.576400    0.096800
H     -1.054200    3.762600   -0.940500
H     -1.422200    3.995200    0.777300
H      1.167500    4.320300   -0.210200
H      0.848700    3.750800    1.432200
H      3.243800    2.285200    0.970200
H      2.597300    0.575600    0.797200
H      2.127900    0.979000   -1.630100
H      2.751800    2.697600   -1.483300
