13
gdb_949
O      0.097200    1.367500    0.131100
C      0.067900    0.006800    0.040100
C      0.076100   -0.664600   -1.183400
C      0.044800   -2.056800   -1.209600
C      0.005200   -2.785400   -0.024400
C     -0.002800   -2.105900    1.193900
C      0.028200   -0.717300    1.233400
H      0.122600    1.740200   -0.756100
H      0.107000   -0.098800   -2.111300
H      0.051500   -2.570000   -2.165700
H     -0.019100   -3.869000   -0.047900
H     -0.033500   -2.662500    2.125000
H      0.022500   -0.175500    2.172300
