20
gdb_17841
C      0.006900    1.473800   -0.096000
C      0.039700   -0.041100    0.120800
O      0.684200   -0.374000    1.351900
C     -1.349600   -0.645900    0.041100
C     -1.997000   -1.224900   -1.192500
C     -0.990000   -1.985400   -2.067400
C     -0.619300   -2.881900   -0.840700
C     -1.647300   -2.119200    0.006000
H      1.014200    1.891900   -0.019200
H     -0.403300    1.720200   -1.080900
H     -0.622700    1.960300    0.659600
H      0.684200   -0.487000   -0.642600
H      0.094500   -0.113900    2.068100
H     -2.072600   -0.101100    0.651200
H     -2.968500   -0.880000   -1.527500
H     -1.482900   -2.560600   -2.854300
H     -0.188600   -1.398500   -2.528000
H     -0.895000   -3.926300   -1.000600
H      0.413900   -2.846500   -0.483700
H     -2.312000   -2.573000    0.731800
