18
gdb_8055
C      0.480500    1.230900    0.373300
C      0.190900   -0.226400    0.132600
C      0.625500   -1.096500   -1.086900
C     -0.203000   -2.050200   -0.179800
C      0.571900   -1.446100    1.028200
C     -1.239200   -0.901100   -0.047800
C     -2.232100   -0.855800    1.075300
O     -2.324300   -1.654900    1.976000
H      1.561500    1.404100    0.416100
H      0.073000    1.854900   -0.429600
H      0.050600    1.573000    1.320600
H      0.197200   -0.833700   -2.058900
H      1.695500   -1.309400   -1.163200
H     -0.431300   -3.100300   -0.357100
H      1.640300   -1.676300    1.073800
H      0.100900   -1.524100    2.006700
H     -1.738300   -0.591500   -0.975500
H     -2.929800    0.014000    1.021900
