12
gdb_203
C     -0.017800    1.523400    0.013600
C      0.001100    0.026400    0.014600
C     -0.063000   -0.802100   -1.062100
O     -0.020800   -2.108800   -0.681300
C      0.073900   -2.115000    0.673300
C      0.091800   -0.846900    1.155900
H      0.892900    1.937100    0.461600
H     -0.096100    1.916700   -1.003800
H     -0.864800    1.915000    0.588300
H     -0.139000   -0.625500   -2.122700
H      0.118100   -3.087700    1.135000
H      0.160400   -0.555300    2.192900
