18
gdb_11398
C     -0.549600    0.751400    0.097900
O      0.157600   -0.457000   -0.072200
C      0.987200   -0.495100   -1.240700
C      1.728900   -1.840400   -1.228300
C      0.792000   -2.799800   -1.995800
O     -0.125500   -3.487800   -1.149800
C      0.062900   -1.849200   -2.929800
C      0.163700   -0.586100   -2.516800
H      0.130300    1.617600    0.108900
H     -1.301500    0.911900   -0.688200
H     -1.060100    0.694000    1.062400
H      1.662900    0.372700   -1.222900
H      2.677900   -1.736100   -1.763000
H      1.932500   -2.186900   -0.213500
H      1.339700   -3.586500   -2.522400
H     -0.567300   -2.806900   -0.625900
H     -0.525300   -2.201100   -3.770000
H     -0.318100    0.270300   -2.974700
