17
gdb_1485
C     -0.019000    1.542000   -0.050300
C      0.014800    0.012300   -0.047100
C      0.725200   -0.589500   -1.259000
C      0.805200   -2.111500   -1.217900
O     -0.013000   -0.197300   -2.439700
C      0.669400    0.255500   -3.504100
O      0.143400    0.558500   -4.533400
H      0.993100    1.962500   -0.051900
H     -0.543100    1.919700   -0.932200
H     -0.534100    1.921900    0.836500
H      0.525000   -0.352000    0.852600
H     -1.005500   -0.387900   -0.013200
H      1.738000   -0.166700   -1.332000
H     -0.198400   -2.545600   -1.184900
H      1.316700   -2.500100   -2.103200
H      1.355600   -2.440500   -0.331300
H      1.760300    0.322600   -3.319300
