18
gdb_6285
C     -0.033100    1.581100   -0.023700
C     -0.003500    0.059300    0.067300
O      0.718700   -0.276000    1.236900
C     -1.425800   -0.531000    0.076800
C     -1.442900   -2.070100   -0.021800
N     -0.772700   -2.684300    1.137000
C     -2.822200   -2.568800   -0.203600
N     -3.899100   -2.976300   -0.308800
H      0.987500    1.970600    0.012900
H     -0.502200    1.914900   -0.954000
H     -0.586500    2.002600    0.821600
H      0.513800   -0.333400   -0.828900
H      0.605500   -1.230600    1.368000
H     -1.940900   -0.219200    0.993600
H     -1.996300   -0.130600   -0.768000
H     -0.873900   -2.362200   -0.913200
H     -1.325100   -2.528800    1.976400
H     -0.700300   -3.689700    1.013900
