18
gdb_3515
C     -0.119300    1.138500   -0.447400
C      1.225800    0.986600    0.177100
N      0.300300   -0.136100    0.117000
C     -0.288500   -0.615600    1.351900
C     -0.827200    0.299100    2.504100
C     -1.967500   -0.738000    2.699400
C     -1.689000   -1.266300    1.266900
H     -0.847300    1.746000    0.086000
H     -0.226800    1.154500   -1.528600
H      2.119200    0.903600   -0.436300
H      1.376500    1.477100    1.137700
H      0.425600   -1.329000    1.779400
H     -0.163000    0.501200    3.347800
H     -1.222300    1.249600    2.134500
H     -1.713600   -1.479000    3.462400
H     -2.966500   -0.351600    2.910900
H     -2.306000   -0.748800    0.525500
H     -1.743800   -2.341400    1.082300
