17
gdb_5605
C     -0.025900    1.423500    0.066600
N     -0.008700   -0.022000    0.030100
C     -0.025300   -0.789100   -1.113600
C     -0.000300   -2.112200   -0.746300
C      0.033000   -2.155500    0.674800
C      0.026900   -0.855900    1.127200
C      0.052700   -0.321000    2.523900
O      0.078400   -1.422100    3.412800
H      0.869000    1.823300    0.557400
H     -0.053400    1.804300   -0.955600
H     -0.907600    1.801200    0.597100
H     -0.053500   -0.317100   -2.083200
H     -0.005300   -2.955300   -1.420000
H      0.058400   -3.028200    1.306700
H      0.935500    0.328100    2.671500
H     -0.831500    0.316700    2.708300
H      0.101700   -1.077900    4.309800
