17
gdb_20793
C      0.087800    1.597400   -0.239300
C      0.003000    0.091400    0.059500
C     -1.405800   -0.408800    0.137600
C     -2.152600   -0.808000    1.227900
C     -1.858800   -0.911300    2.686600
N     -3.354100   -1.131000    0.680100
N     -3.365700   -0.950800   -0.654400
N     -2.187000   -0.512900   -0.981600
H      1.129800    1.920300   -0.327700
H     -0.425800    1.827800   -1.176600
H     -0.385000    2.183900    0.555200
H      0.527300   -0.461600   -0.728100
H      0.524500   -0.132500    0.996900
H     -2.467500   -0.216200    3.276300
H     -2.045000   -1.921300    3.069000
H     -0.810100   -0.673900    2.876500
H     -4.182900   -1.478000    1.136200
