20
gdb_7438
C     -1.857500    1.133700   -0.354800
N     -1.157000   -0.125100   -0.159300
C     -0.597700   -0.302900    1.172900
C     -0.565600   -0.679800   -1.290000
O     -0.496600   -0.077000   -2.349900
N     -0.057700   -1.965900   -1.134700
C      0.727800   -2.482600   -2.243700
C     -0.754600   -2.985200   -0.363600
H     -1.184600    1.999800   -0.270700
H     -2.305100    1.148900   -1.347300
H     -2.641400    1.231600    0.404100
H     -0.122100    0.628200    1.514500
H     -1.372200   -0.569900    1.903100
H      0.162700   -1.082400    1.165700
H      1.271300   -1.665100   -2.714600
H      1.437100   -3.227400   -1.866600
H      0.099200   -2.960400   -3.009600
H     -1.552500   -2.537000    0.226500
H     -1.209300   -3.727800   -1.035600
H     -0.071700   -3.518000    0.310300
