16
gdb_11422
C     -0.087500    1.518500    0.043400
C     -0.043400   -0.010400   -0.006700
C      0.656900   -0.538700   -1.240300
O      0.711300   -1.949700   -1.214000
C      0.616800   -2.392100   -2.552100
C     -0.071700   -1.244700   -3.282700
O     -0.538700   -1.218900   -4.380900
O     -0.066100   -0.186000   -2.431300
H      0.920800    1.946800    0.042900
H     -0.625400    1.922800   -0.818200
H     -0.592700    1.859000    0.951000
H      0.490700   -0.413500    0.861100
H     -1.052800   -0.435000    0.008700
H      1.670400   -0.114800   -1.342200
H      1.602100   -2.580000   -3.006100
H      0.025000   -3.308500   -2.603600
