17
gdb_7256
C      0.158300    1.484700   -0.251700
C     -0.002000   -0.006400    0.053600
C      0.670700   -0.390800    1.387800
C     -1.487800   -0.376600    0.125700
O     -2.352000    0.391100    0.460500
N     -1.739100   -1.722700   -0.202100
C     -2.951600   -2.407000   -0.161500
O     -4.015400   -1.964500    0.169400
H      1.216800    1.760700   -0.254700
H     -0.266900    1.739400   -1.226500
H     -0.360600    2.082100    0.501500
H      0.465800   -0.592200   -0.749500
H      0.219100    0.165800    2.214800
H      0.569500   -1.458700    1.605700
H      1.737600   -0.151300    1.356500
H     -0.945000   -2.270800   -0.499000
H     -2.802500   -3.457800   -0.487300
