17
gdb_12912
C     -0.089400    1.461500   -0.027000
C     -0.005800   -0.037200   -0.034200
C     -1.204800   -0.988100   -0.112900
C     -0.488600   -1.818400    0.978500
N      0.661700   -0.839000    1.044700
C      1.290500   -0.750200   -0.307600
C      1.462100   -1.842000   -1.300900
O      0.751400   -2.808600   -1.459500
H      0.853300    1.906400    0.303400
H     -0.318000    1.842900   -1.028700
H     -0.881500    1.799800    0.649800
H     -2.127800   -0.516400    0.231300
H     -1.383000   -1.478400   -1.071000
H     -0.995100   -1.803500    1.945500
H     -0.202200   -2.836400    0.721900
H      2.160800   -0.099600   -0.263100
H      2.352300   -1.687400   -1.952700
