22
gdb_6136
C     -0.886000    0.977500   -0.113100
C      0.166300   -0.116000    0.002600
C      1.527400    0.079700   -0.720100
C      2.236100   -0.576600    0.501100
C      2.550600   -2.056400    0.302500
O      3.362100    0.107000    1.024100
C      0.946300   -0.327100    1.347200
C      1.019600    0.879500    2.278900
H     -0.490300    1.954100    0.182300
H     -1.239500    1.063900   -1.146800
H     -1.757700    0.766000    0.516500
H     -0.279200   -1.068400   -0.305100
H      1.660800   -0.386900   -1.701000
H      1.798600    1.137400   -0.788600
H      3.351400   -2.188800   -0.436800
H      2.876900   -2.504000    1.246600
H      1.677000   -2.608200   -0.058900
H      4.113200   -0.072100    0.448400
H      0.621800   -1.202000    1.921400
H      1.363100    1.780200    1.763100
H      0.038000    1.089400    2.716500
H      1.723100    0.689200    3.093800
