20
gdb_15091
O     -0.176400    1.400700    0.113300
C     -0.109900   -0.020100    0.114800
C     -1.516400   -0.572600   -0.129400
C     -2.027900   -0.151800   -1.518100
O     -3.399900   -0.451400   -1.732500
C     -1.540100   -2.076900    0.058700
C     -1.667200   -2.684300    1.436500
C     -2.805600   -2.788400    0.452800
H      0.715900    1.745000    0.210700
H      0.572300   -0.386100   -0.671200
H      0.265300   -0.400000    1.076600
H     -2.172500   -0.111700    0.624500
H     -1.821500    0.915300   -1.669400
H     -1.481000   -0.706600   -2.290600
H     -3.915800    0.139000   -1.174700
H     -0.895600   -2.614500   -0.634700
H     -1.095000   -3.577000    1.663800
H     -1.784000   -2.008700    2.278300
H     -3.686900   -2.181800    0.625200
H     -3.015500   -3.752100    0.002800
