20
gdb_13250
O     -0.611500    0.786100    0.865100
C      0.034100    1.033300   -0.120600
C      1.331300    1.805800   -0.142900
C      1.251400    3.036300   -1.066200
C      2.584600    3.759800   -1.204000
C      3.753100    3.067100   -1.965600
C      4.116800    4.446100   -2.579500
C      2.695200    4.944600   -2.205400
H     -0.311200    0.696700   -1.128000
H      1.589800    2.087300    0.882200
H      2.112700    1.129500   -0.519500
H      0.906500    2.723400   -2.061700
H      0.493300    3.730500   -0.680500
H      2.931300    4.080600   -0.214100
H      4.516400    2.549700   -1.379300
H      3.373100    2.376900   -2.727300
H      4.890300    4.955800   -1.998000
H      4.403700    4.472000   -3.633100
H      1.994300    4.824000   -3.038500
H      2.591600    5.958100   -1.810300
