11
gdb_1386
C      0.044700    1.448700    0.008200
C      0.003000   -0.001700   -0.009300
C     -0.054300   -1.208700   -0.023100
C     -0.075000   -2.649000   -0.038300
O     -1.075700   -3.325900   -0.076600
C      1.330400   -3.302500   -0.000600
O      1.480000   -4.490700   -0.008100
H      1.069100    1.822300   -0.085600
H     -0.549800    1.862200   -0.813500
H     -0.374100    1.831700    0.945300
H      2.178500   -2.584000    0.033500
