14
gdb_13048
N     -0.022000    1.224000    0.019700
C     -0.119600   -0.008400   -0.223400
O     -1.051200   -0.739100    0.444000
C     -1.041600   -2.125900    0.193100
C     -2.341500   -2.833200    0.654600
N     -2.515100   -3.267500   -0.738100
C     -1.444900   -2.581000   -1.246900
O     -1.016400   -2.400200   -2.354600
H      0.705400    1.633900   -0.562800
H      0.461900   -0.591800   -0.945100
H     -0.119800   -2.593700    0.556200
H     -2.214400   -3.648800    1.371100
H     -3.099000   -2.128100    1.006100
H     -3.259100   -3.773400   -1.195400
