15
gdb_1919
O     -0.123300    1.445300   -0.048400
C     -0.028000    0.037900    0.015700
C      0.251500   -0.622800    1.416400
C     -1.118600   -1.301900    1.313900
O     -1.361600   -2.618200    1.664500
C     -2.206700   -0.280000    1.167600
C     -1.379700   -0.662500   -0.043900
H      0.759400    1.810400    0.069400
H      0.663900   -0.344900   -0.745800
H      1.075700   -1.339100    1.378900
H      0.398800    0.068200    2.253600
H     -1.664500   -2.635400    2.578900
H     -3.208700   -0.697000    1.159600
H     -2.120800    0.713900    1.596900
H     -1.835900   -1.081000   -0.931900
