17
gdb_12233
C      0.017300    1.389500    0.175300
N     -0.039300   -0.061000    0.303200
C     -1.109300   -0.657800    0.049000
O     -2.340800   -0.204000   -0.373000
C     -2.807000   -1.585000   -0.624000
C     -3.060400   -1.843000   -2.089600
C     -1.478800   -2.123200   -0.017300
O     -0.679500   -2.931900   -0.841200
H      0.912200    1.662100   -0.393300
H     -0.862200    1.826100   -0.311900
H      0.121800    1.836200    1.170500
H     -3.692500   -1.775600   -0.011600
H     -2.151600   -1.687700   -2.674700
H     -3.383800   -2.878500   -2.233800
H     -3.845900   -1.178800   -2.460900
H     -1.619400   -2.584600    0.968600
H      0.196900   -2.530200   -0.860300
