19
gdb_17350
C     -0.263400    1.404500   -0.047800
C      0.041300   -0.066600    0.116400
C      1.394500   -0.618100   -0.182200
N      0.903000   -0.570100    1.192700
C      1.533600    0.332300    2.119200
C      0.794200    0.611800    3.415100
C      1.967300   -0.339000    3.402200
O      1.754900   -1.706600    3.526900
H      0.625200    2.026100    0.086500
H     -0.656900    1.594400   -1.052000
H     -1.018500    1.733000    0.673800
H     -0.811600   -0.718300   -0.068500
H      1.517300   -1.607500   -0.614500
H      2.168000    0.096500   -0.460300
H      2.158000    1.125000    1.708400
H      0.906100    1.593100    3.863800
H     -0.187000    0.162600    3.524700
H      2.896300   -0.023300    3.867000
H      1.272400   -1.957000    2.722200
