20
gdb_8512
C     -0.080900    1.474900    0.005800
C      0.034100   -0.020200   -0.008800
C      0.938600   -0.873800   -0.897400
C      0.071300   -2.090400   -0.459000
C     -0.078400   -3.302700   -1.338800
C      0.404100   -2.225600    1.057300
C     -0.291800   -0.879200    1.226700
C     -1.068200   -1.053200   -0.060100
H      0.830200    1.943100    0.397700
H     -0.250900    1.872300   -1.001600
H     -0.915900    1.801200    0.635600
H      0.787700   -0.633900   -1.955700
H      2.014400   -0.916000   -0.682000
H      0.878800   -3.828700   -1.441600
H     -0.803400   -4.011700   -0.923700
H     -0.415500   -3.028600   -2.344800
H     -0.171100   -3.032700    1.522400
H      1.461400   -2.321800    1.335000
H     -0.634500   -0.413100    2.142500
H     -2.123200   -0.980500   -0.285500
