11
gdb_2824
O      0.110100    0.248600   -0.465500
C      0.129800    1.392200   -0.097500
N      1.220900    1.980800    0.549700
C      2.584000    1.801200    0.133800
C      1.928900    3.165900    0.087000
C      1.604000    3.745600   -1.195600
N      1.333300    4.228500   -2.210500
H     -0.730100    2.082000   -0.161300
H      3.308900    1.607000    0.918400
H      2.753900    1.291900   -0.810600
H      2.170100    3.894200    0.856400
