17
gdb_20234
C     -0.044200    1.583100   -0.006200
C      1.445500    2.042600   -0.005400
C      2.215800    0.724700    0.054200
C      2.097000   -0.093100    1.336900
C      0.619200   -0.548900    1.336100
C      1.654000   -1.279000    0.536600
N      1.364600   -0.338400   -0.641100
C      0.061700    0.060300    0.053000
H     -0.610400    1.975000    0.843600
H     -0.556500    1.904800   -0.917700
H      1.688500    2.597200   -0.916500
H      1.691600    2.685100    0.844900
H      3.224100    0.752400   -0.364000
H      2.680800   -0.061000    2.248700
H      0.117900   -0.851500    2.247300
H      1.971800   -2.309100    0.468100
H     -0.786600   -0.484700   -0.366200
