20
gdb_16886
C      0.051100    1.539200    0.002000
C     -0.037900    0.038700   -0.001800
C     -0.002500   -0.683400   -1.127600
C     -0.046100   -2.165600   -1.155400
C      0.980700   -2.959800   -0.354900
C     -0.440700   -2.871500    0.124900
C     -0.857700   -2.002400    1.295600
C     -0.133400   -0.643000    1.347100
H      0.915000    1.887000    0.584900
H      0.145100    1.942300   -1.010300
H     -0.835300    1.989500    0.468500
H      0.079500   -0.175600   -2.086200
H     -0.365600   -2.608500   -2.093300
H      1.322600   -3.905500   -0.762100
H      1.748900   -2.391700    0.158300
H     -1.033700   -3.774200    0.006800
H     -1.936700   -1.819800    1.210200
H     -0.707000   -2.533700    2.242900
H      0.877400   -0.774700    1.759600
H     -0.649100    0.012500    2.059800
