18
gdb_8300
C     -0.154900    1.370300   -0.196500
O     -0.092200   -0.034000   -0.119200
C      0.766000   -0.602800   -1.082000
C      0.736300   -2.109000   -0.921800
C     -0.610200   -2.814600   -1.277300
C      0.174700   -3.731900   -2.227600
O     -0.096800   -4.720400   -2.843600
C      1.474000   -2.929100   -2.026300
H      0.830800    1.833600   -0.031500
H     -0.532300    1.709600   -1.174300
H     -0.839800    1.711000    0.583600
H      0.440000   -0.324600   -2.101500
H      1.795200   -0.222300   -0.958900
H      1.076600   -2.372400    0.082400
H     -1.148800   -3.318700   -0.471300
H     -1.317500   -2.167500   -1.807800
H      1.737800   -2.343700   -2.915000
H      2.348500   -3.513000   -1.728500
