16
gdb_10457
O     -0.247300    0.892000    1.191300
C      0.041200    1.155900    0.052400
C      1.399300    1.671600   -0.384500
C      1.293400    2.882900   -1.312100
C      1.052100    4.246400   -0.675000
C      2.400200    3.926400   -1.249900
C      0.693800    2.624200   -2.594800
C      0.197100    2.385400   -3.664500
H     -0.692900    1.031500   -0.773800
H      1.977900    1.913000    0.511300
H      1.914600    0.857500   -0.913000
H      0.416700    4.941200   -1.210200
H      0.942400    4.268000    0.404000
H      3.221700    3.731400   -0.569400
H      2.685200    4.398700   -2.182300
H     -0.244100    2.182900   -4.608900
