16
gdb_2325
C     -0.109200    1.557400    0.293700
N      0.015100    0.115900    0.124100
C      1.301500   -0.408600   -0.316100
C      0.809400   -0.670700    1.066800
C      1.511400   -0.070200    2.274900
C      0.564700    0.123500    3.443100
O      0.463700    1.135900    4.085600
H      0.821200    2.069000    0.584600
H     -0.443700    1.988200   -0.655100
H     -0.868900    1.772500    1.051300
H      1.273500   -1.184600   -1.077000
H      2.129700    0.293700   -0.414700
H      0.367800   -1.646600    1.270800
H      2.285900   -0.780400    2.601400
H      2.004600    0.879600    2.059400
H     -0.057200   -0.771700    3.680900
