13
gdb_17011
N     -0.054200   -1.171000   -0.074200
C     -0.021300   -0.016400   -0.021600
C     -0.006800    1.436800    0.018700
C      0.048600    2.120100    1.440200
C      1.541900    1.641900    1.512900
C      1.403300    2.145500    0.032700
C      0.636200    3.319600    0.671500
O      0.570100    4.504800    0.629200
H     -0.742100    1.838200   -0.681800
H     -0.715100    2.077200    2.211700
H      2.211800    2.198900    2.167700
H      1.668900    0.563800    1.615700
H      2.145600    2.130900   -0.760500
