21
gdb_8439
C      0.013200    1.540300    0.113600
C     -0.026200    0.043900   -0.017400
C     -0.882000   -0.795400    0.848300
N      0.581100   -0.892600    1.022500
C      1.033200   -1.782000   -0.103900
C      0.552400   -0.777400   -1.195500
C     -0.436600   -1.277100   -2.248900
C      1.738400   -0.082800   -1.869800
H      0.985800    1.952000   -0.171600
H     -0.749500    2.007700   -0.521000
H     -0.185300    1.834900    1.148200
H     -1.377400   -0.301600    1.679600
H     -1.421700   -1.654900    0.456000
H      2.117200   -1.915300   -0.073800
H      0.554300   -2.767900   -0.096800
H     -1.296300   -1.783900   -1.802300
H     -0.815700   -0.445800   -2.854800
H      0.048600   -1.985800   -2.930300
H      2.257800   -0.782200   -2.534200
H      1.413400    0.770400   -2.475800
H      2.463500    0.280400   -1.135000
