16
gdb_5921
C      0.052200    1.571800   -0.008500
C      0.030000    0.027200    0.036600
C      0.828700   -0.505400    1.247600
N     -1.357300   -0.479000    0.057100
C     -2.254300   -0.216700    1.045400
O     -2.044400    0.457800    2.032000
C      0.635900   -0.495600   -1.202600
N      1.108500   -0.906100   -2.173600
H      1.083000    1.930300   -0.063600
H     -0.493900    1.937600   -0.881000
H     -0.418300    1.954900    0.897600
H      0.363700   -0.137100    2.162600
H      0.827600   -1.597800    1.256800
H      1.862700   -0.155700    1.197700
H     -1.658400   -1.056200   -0.712200
H     -3.228800   -0.703300    0.843300
