24
gdb_14790
C     -0.034600    1.586800   -0.014000
C      0.001900    0.056200    0.003800
C      0.731100   -0.515800    1.224100
C      0.772100   -2.047400    1.249500
C      1.502600   -2.611400    2.472100
C      1.538900   -4.133200    2.489500
O      2.227900   -4.559200    3.645600
C      2.311700   -5.958300    3.748500
H      0.977500    2.006600   -0.024700
H     -0.560900    1.965000   -0.896100
H     -0.544400    1.980800    0.872300
H     -1.023800   -0.335400   -0.020800
H      0.486500   -0.309800   -0.911300
H      1.757800   -0.124700    1.250000
H      0.247100   -0.150400    2.140700
H     -0.255200   -2.437100    1.223400
H      1.256100   -2.411400    0.332300
H      2.533500   -2.237800    2.501000
H      1.019700   -2.263700    3.393600
H      0.512800   -4.542800    2.482900
H      2.039700   -4.516700    1.582500
H      2.857500   -6.188700    4.667000
H      1.315600   -6.427300    3.801000
H      2.850600   -6.402000    2.895300
