20
gdb_7584
C      0.101600    1.502500   -0.159400
C     -0.044700   -0.007800    0.036600
O      0.571200   -0.433400    1.251600
C     -1.495300   -0.503500    0.100900
C     -2.297200    0.123400    1.236800
C     -2.182200   -0.545400   -1.287800
O     -2.082200   -1.979500   -1.353900
C     -1.570900   -2.048800   -0.005400
H      1.159000    1.770500   -0.266900
H     -0.413100    1.840700   -1.064600
H     -0.299200    2.050400    0.697500
H      0.431900   -0.517100   -0.818100
H      1.487500   -0.140300    1.242000
H     -2.445000    1.197400    1.082600
H     -3.287400   -0.337000    1.307600
H     -1.782100   -0.014800    2.191200
H     -3.226200   -0.203000   -1.288500
H     -1.651300   -0.057800   -2.116000
H     -0.616300   -2.582700    0.051800
H     -2.287300   -2.520700    0.679800
