18
gdb_1122
C     -0.016100    1.363700   -0.236000
C      0.058300   -0.108500    0.185400
C      0.750700   -0.284600    1.542000
N     -1.271800   -0.709500    0.201700
C     -1.635200   -1.750700   -0.604300
C     -3.069200   -2.231900   -0.431700
O     -0.878100   -2.267100   -1.407600
H      0.985500    1.802100   -0.287400
H     -0.486600    1.463800   -1.217900
H     -0.598600    1.951900    0.483800
H      0.604400   -0.673900   -0.574200
H      1.763100    0.130300    1.515800
H      0.200500    0.234200    2.336700
H      0.818800   -1.342600    1.809300
H     -1.951700   -0.333000    0.842800
H     -3.636200   -1.678300    0.321700
H     -3.583300   -2.152700   -1.393200
H     -3.053000   -3.290200   -0.158000
