20
gdb_1340
C     -0.130100    1.565500   -0.263800
C      0.016100    0.124200    0.220600
N     -1.271000   -0.558700    0.151700
C     -1.589900   -1.299000   -1.067400
C     -1.363300   -2.022300    0.220900
C     -0.122200   -2.883300    0.376800
C     -2.559200   -2.519500    1.010800
H      0.820400    2.101800   -0.179200
H     -0.442400    1.593100   -1.313000
H     -0.884900    2.093400    0.325500
H      0.803800   -0.376900   -0.366200
H      0.344900    0.116000    1.267100
H     -2.593700   -1.164800   -1.464800
H     -0.812600   -1.382700   -1.827800
H      0.707000   -2.550500   -0.250300
H      0.219600   -2.891400    1.418800
H     -0.349400   -3.918600    0.100500
H     -2.859800   -3.520200    0.679500
H     -2.322300   -2.578600    2.079600
H     -3.406700   -1.840800    0.891100
