18
gdb_15563
C     -0.079800    1.561500   -0.011000
C      0.031500    0.036200    0.039500
C      0.733500   -0.588800   -1.193400
C      1.516900   -1.813300   -0.662800
C      1.670900   -1.505700    0.802900
C      0.869400   -0.505400    1.199900
C      0.729900   -0.014400    2.520300
C      0.574200    0.438600    3.626900
H      0.909900    2.021800   -0.105100
H     -0.683000    1.877900   -0.868300
H     -0.547300    1.953500    0.897000
H     -0.984300   -0.374600    0.140000
H      0.030400   -0.843500   -1.990700
H      1.439200    0.142100   -1.604400
H      0.955500   -2.749600   -0.798300
H      2.476000   -1.958600   -1.172500
H      2.322900   -2.065600    1.463400
H      0.450000    0.824900    4.607900
