17
gdb_12205
C      0.451700    1.440100   -0.293500
C      0.033200    0.035700    0.092700
O      0.627700   -0.968700   -0.781300
C      1.313800   -1.603700    0.306900
C      2.774100   -1.532500    0.169000
N      3.924800   -1.471900    0.078400
C      0.663900   -0.639400    1.346700
C      1.556800    0.157900    2.283500
H      1.538700    1.554100   -0.290000
H      0.090700    1.664200   -1.301900
H      0.017300    2.174200    0.393500
H     -1.059800   -0.050200    0.062700
H      1.030300   -2.657900    0.410200
H     -0.092100   -1.175800    1.924700
H      2.365600    0.665600    1.752800
H      0.971500    0.911600    2.819800
H      2.014500   -0.499300    3.029500
