15
gdb_9082
N     -0.104300    1.434500   -0.012300
C      0.010000   -0.020100   -0.040300
C      0.698600   -0.603400   -1.291100
O     -0.072400   -0.153400   -2.398400
C      0.392500   -0.464600   -3.629600
N     -0.244700   -0.086600   -4.648100
C      0.717500   -0.498300    1.156000
N      1.305800   -0.889400    2.069600
H      0.819100    1.859200   -0.004700
H     -0.563600    1.730700   -0.868900
H     -1.007400   -0.430400   -0.011400
H      1.730900   -0.234600   -1.356900
H      0.717200   -1.699900   -1.246700
H      1.325100   -1.044200   -3.612100
H      0.228300   -0.396800   -5.494200
