19
gdb_11863
O     -0.015500    1.353000   -0.263700
C      0.018800   -0.039900    0.013800
C     -1.408700   -0.538000    0.079800
C     -2.231400   -0.550700   -1.244900
C     -2.705500   -1.959600   -0.870000
C     -4.106000   -2.430600   -0.815100
N     -3.131500   -3.042000   -1.746800
C     -1.626600   -2.075800    0.211500
H      0.889800    1.669900   -0.331300
H      0.562100   -0.590200   -0.773000
H      0.529400   -0.246600    0.969100
H     -1.942900    0.009000    0.861900
H     -2.991000    0.223700   -1.374900
H     -1.577300   -0.551500   -2.124700
H     -4.434900   -3.083700   -0.010400
H     -4.881500   -1.783000   -1.218300
H     -3.284000   -2.688100   -2.688900
H     -0.763300   -2.651600   -0.139800
H     -1.930900   -2.458900    1.188500
