16
gdb_5535
C     -0.455400    1.198300   -0.138500
N      0.388600    0.036200    0.160000
C      0.814200   -0.715700   -0.928900
C      0.641600   -2.041100   -1.208000
N      0.026300   -2.990100   -0.381600
C      1.294400   -2.282100   -2.464200
C      1.813900   -1.087500   -2.851700
O      1.553100   -0.121300   -1.944100
H      0.040800    1.957700   -0.759000
H     -1.351800    0.860900   -0.667000
H     -0.766500    1.664800    0.801100
H      1.152100    0.298100    0.775900
H     -0.492500   -2.533000    0.359800
H     -0.584300   -3.618200   -0.889200
H      1.368700   -3.220600   -2.991600
H      2.372700   -0.781400   -3.721500
