17
gdb_23906
C     -0.052200    1.576800   -0.047900
C     -0.006900    0.047300   -0.011500
C      0.728700   -0.494300    1.218500
C      0.773600   -2.025100    1.253700
C      1.498200   -2.567100    2.466500
F      0.912700   -2.179200    3.613100
F      1.519000   -3.910400    2.465000
F      2.775300   -2.149200    2.513700
H      0.957300    2.001800   -0.066000
H     -0.582200    1.938500   -0.934100
H     -0.563500    1.978200    0.833900
H     -1.029500   -0.352200   -0.028100
H      0.480400   -0.328700   -0.920700
H      1.753700   -0.105800    1.237600
H      0.242300   -0.129600    2.130900
H     -0.236800   -2.447200    1.266500
H      1.282200   -2.423300    0.369500
