13
gdb_5216
N      0.004800    1.352000    0.171300
C      0.092800   -0.003600    0.222300
N      1.066100   -0.634300   -0.326000
C      1.169400   -1.986300   -0.212700
C      2.083700   -2.871200   -0.699500
N      1.745900   -4.160200   -0.307900
C      0.667000   -4.008900    0.384300
O      0.238200   -2.727000    0.499300
H      0.631500    1.835800   -0.453300
H     -0.871700    1.797300    0.379400
H     -0.705000   -0.487400    0.791800
H      2.952700   -2.659600   -1.300000
H      0.072900   -4.763500    0.875900
