15
gdb_13922
O     -0.082800    0.024700   -0.160400
C     -0.080700    1.207000    0.001200
C     -1.134500    2.283700    0.310100
N     -0.009700    3.244500    0.479300
C      1.001000    2.295400   -0.018800
C      2.378400    2.126600    0.651500
O      3.063000    2.248900   -0.612700
C      1.837100    2.520300   -1.307000
H     -1.805000    2.469100   -0.539800
H     -1.739500    2.128900    1.209600
H     -0.091900    4.098400   -0.060500
H      2.623400    2.939100    1.346600
H      2.561200    1.156300    1.127300
H      1.658400    1.819000   -2.130900
H      1.786900    3.551600   -1.686300
