16
gdb_16509
O     -0.062200    1.352600   -0.030900
C      0.011200   -0.037800   -0.058300
C      0.974100   -0.742300   -0.956900
C      0.528000   -1.980000   -1.192200
C     -0.710400   -2.224300   -0.356700
C     -0.249300   -2.272600    1.160500
C     -0.473600   -0.770100    1.228600
C     -1.278900   -0.797400   -0.056300
H      0.619600    1.679400    0.565300
H      1.895800   -0.294300   -1.307300
H      1.041000   -2.758100   -1.743900
H     -1.380700   -3.016800   -0.684900
H     -0.989900   -2.796700    1.770600
H      0.748500   -2.676800    1.362900
H     -0.645200   -0.175200    2.118700
H     -2.244400   -0.374700   -0.304900
