12
gdb_4518
N      0.067800    1.406400   -0.155800
C     -0.002500    0.019400   -0.064600
C     -1.082300   -0.794600   -0.033200
O     -2.409500   -0.602500    0.080900
O     -0.602000   -2.119200   -0.001500
C      0.730700   -1.959300   -0.026900
O      1.481700   -3.061400   -0.016500
N      1.165400   -0.746300   -0.063400
H      0.937800    1.752500    0.227900
H     -0.722600    1.870100    0.272400
H     -2.832800   -0.680700   -0.784500
H      0.896200   -3.826100    0.038800
