20
gdb_6280
C      0.673400    1.437300    0.410900
C      0.021400    0.117400   -0.007800
C      0.506600   -0.353000   -1.375400
O      0.308200   -0.950300    0.897600
C     -0.434100   -0.985900    2.106600
C     -0.569000   -2.458600    2.509700
C      0.192100   -0.208700    3.188500
C      0.699500    0.389400    4.099800
H      1.759300    1.317300    0.478200
H      0.455000    2.215500   -0.328200
H      0.309400    1.776500    1.383000
H     -1.072500    0.256700   -0.045000
H      1.588300   -0.519100   -1.356200
H      0.021000   -1.292100   -1.653200
H      0.286100    0.396800   -2.141000
H     -1.440800   -0.574000    1.926800
H     -1.131300   -2.551600    3.442200
H     -1.085100   -3.007900    1.718400
H      0.422600   -2.894800    2.652800
H      1.150800    0.930500    4.894500
