13
gdb_12615
O      0.235400    1.324900    0.425600
C     -0.005400    0.011300    0.040200
C     -1.471100   -0.374300   -0.162500
O     -2.440100    0.065600    0.384300
C     -1.478600   -1.457200   -1.264600
N     -0.182100   -1.276100   -1.903300
C      0.620800   -0.347500   -1.311200
O      1.640600    0.145300   -1.743000
H      1.028400    1.594700   -0.062300
H      0.392000   -0.719300    0.774200
H     -1.598200   -2.453600   -0.819000
H     -2.316200   -1.285900   -1.948100
H      0.032300   -1.624000   -2.825400
