13
gdb_4442
C      0.041200    1.544600    0.017700
C     -0.034600    0.061500    0.027200
C     -1.071900   -0.781200   -0.044800
O     -2.392500   -0.550700   -0.092400
O     -0.660200   -2.092400    0.000700
C      0.734600   -2.103300    0.107300
O      1.394700   -3.104200    0.150600
N      1.095000   -0.785800    0.142900
H      0.674800    1.914900   -0.797700
H     -0.959900    1.959100   -0.118200
H      0.445800    1.942300    0.956800
H     -2.815900   -1.283800   -0.556200
H      2.055300   -0.497400    0.202900
