17
gdb_6064
C      0.034000    1.429500   -0.121900
C      0.013400   -0.056300    0.090100
N     -0.049500   -0.573900    1.245800
O      0.071400   -0.690600   -1.118800
C      0.058400   -2.095700   -1.133300
C      0.099700   -2.594400   -2.579300
C      0.182200   -4.103600   -2.721500
O      0.071100   -1.844700   -3.520100
H      0.944200    1.721000   -0.654600
H     -0.814000    1.732500   -0.743600
H     -0.011300    1.936700    0.840500
H     -0.054400   -1.592600    1.229500
H      0.917600   -2.513500   -0.585700
H     -0.849500   -2.494600   -0.653700
H     -0.586100   -4.602000   -2.120600
H      0.067200   -4.376400   -3.770800
H      1.154000   -4.460800   -2.361200
