11
gdb_5061
O     -0.108200    0.455600   -0.994700
C     -0.028000    1.293900   -0.142700
N     -1.167000    1.791800    0.541300
C     -1.455200    3.027200    0.375100
C     -0.630200    4.009600   -0.346900
N      0.655900    4.025600   -0.403300
C      1.422600    3.045600    0.223200
N      1.180900    1.797500    0.365300
H     -2.381300    3.403100    0.817500
H     -1.155400    4.845800   -0.814000
H      2.375200    3.427500    0.589200
