19
gdb_2176
C      0.165000    1.594300   -0.180200
C      0.021600    0.082200    0.021400
C      0.617300   -0.717600   -1.174700
O      1.537500   -1.666400   -0.649300
C      2.022600   -1.132200    0.568800
C      0.792500   -0.511500    1.243000
C      1.109300    0.437100    2.397400
H      1.214500    1.892200   -0.282700
H     -0.351700    1.906900   -1.094100
H     -0.266200    2.159700    0.651300
H     -1.043800   -0.145500    0.126500
H     -0.135200   -1.268100   -1.747400
H      1.133100   -0.032100   -1.866600
H      2.476800   -1.947400    1.139200
H      2.797400   -0.364600    0.388900
H      0.193800   -1.343000    1.633500
H      1.742700    1.271600    2.080500
H      0.197700    0.857300    2.834400
H      1.639200   -0.093700    3.195700
