20
gdb_20298
C     -0.234800    1.265300   -0.264500
C      1.196300    1.303900    0.212000
C      0.478000   -0.018500    0.087600
C      0.087900   -0.773300    1.320300
C     -0.696800   -2.060300    1.346400
C     -0.301200   -2.988000    0.189400
C      1.182500   -2.948400    0.683100
C      0.761500   -2.021400    1.831600
H     -1.004800    1.616500    0.415100
H     -0.438400    1.475700   -1.308700
H      1.974500    1.541000   -0.505200
H      1.387300    1.680900    1.211800
H      0.775500   -0.631500   -0.756500
H     -0.201600   -0.112700    2.137400
H     -1.606600   -2.153500    1.928600
H     -0.734400   -3.985900    0.284800
H     -0.505700   -2.621800   -0.822100
H      1.519500   -3.925800    1.034900
H      1.934100   -2.556800   -0.010200
H      1.144700   -2.080000    2.844000
