20
gdb_10957
C     -0.003000    1.533600    0.079100
C     -0.137000    0.013400   -0.059200
C      0.692100   -0.555100   -1.207200
C      2.261800   -0.556500   -1.094900
C      2.245500   -2.071500   -1.337000
O      3.131100   -2.734000   -2.170700
C      1.445500   -2.774800   -0.280000
C      0.728700   -2.077500   -1.422000
H      1.035800    1.826000    0.267500
H     -0.327700    2.044100   -0.834600
H     -0.610200    1.914500    0.906300
H      0.153200   -0.466600    0.883700
H     -1.191000   -0.248900   -0.220400
H      0.398900   -0.057600   -2.138300
H      2.740000   -0.011600   -1.911500
H      2.691800   -0.222500   -0.143400
H      3.877900   -3.033800   -1.640900
H      1.453600   -3.856800   -0.367900
H      1.392200   -2.404100    0.741100
H      0.083100   -2.633100   -2.091600
