19
gdb_15995
O      0.354800    0.382900    0.925500
C     -0.211500    0.313300   -0.381500
C     -1.515900   -0.445300   -0.264800
C     -2.274200   -0.849800   -1.563900
C     -2.545900   -2.255200   -0.946900
C     -1.476800   -1.937800    0.103000
C     -0.274700   -2.727000    0.453900
N     -1.377900   -2.539800    1.423800
H      1.195300    0.846900    0.869900
H     -0.391600    1.320700   -0.790000
H      0.462100   -0.212800   -1.076200
H     -2.179100    0.094200    0.422400
H     -3.142800   -0.246900   -1.834800
H     -1.602400   -0.902500   -2.426000
H     -3.542000   -2.331600   -0.501100
H     -2.379900   -3.124000   -1.588200
H     -0.164600   -3.741800    0.079300
H      0.653700   -2.192700    0.631100
H     -1.104300   -1.823800    2.094300
