17
gdb_18252
C      0.048000    1.393300    0.060900
O     -0.182100    0.014700   -0.107300
C      0.582600   -0.573300   -1.143100
C      2.050900   -0.824100   -0.804100
C      2.398700   -2.097200   -0.990200
C      1.214800   -2.910900   -1.409800
N      0.172400   -2.933000   -0.344400
C      0.067800   -1.972900   -1.465100
H      1.072200    1.613700    0.397400
H     -0.134700    1.955100   -0.869900
H     -0.649100    1.744200    0.825900
H      0.506200    0.061600   -2.045100
H      2.701900   -0.040700   -0.434500
H      3.381100   -2.520900   -0.817000
H      1.311400   -3.759900   -2.077500
H     -0.473400   -3.698100   -0.536100
H     -0.742500   -2.086000   -2.176000
