18
gdb_8175
C      0.010300    1.463600    0.044700
C     -0.006300   -0.022400   -0.024400
C     -0.015100   -0.891000   -1.039500
C     -0.010000   -2.258800   -0.340800
C      1.063500   -2.007100    0.776400
C      0.001200   -0.957800    1.213100
O      0.086100   -0.402800    2.487900
C     -1.077800   -2.016500    0.780600
H      0.875200    1.824000    0.615200
H      0.045600    1.909200   -0.953300
H     -0.880500    1.858900    0.552800
H     -0.018500   -0.710200   -2.105900
H     -0.008200   -3.161700   -0.947300
H      1.160700   -2.834300    1.486400
H      2.040900   -1.633600    0.463800
H     -0.673100    0.174400    2.622400
H     -2.058800   -1.648700    0.469000
H     -1.167700   -2.845100    1.490100
