16
gdb_5393
C      0.009100    1.439000    0.128200
N     -0.072100    0.016500   -0.100500
C      0.581900   -0.636100   -1.113500
N      0.589800   -1.977000   -1.018800
C      1.185100   -2.667200   -1.990000
C      1.803800   -2.092000   -3.095000
C      1.798000   -0.700600   -3.179900
C      1.187100    0.047500   -2.186500
H      1.042100    1.796100    0.257300
H     -0.440500    2.001900   -0.699000
H     -0.551300    1.682300    1.033000
H     -0.315400   -0.582800    0.671500
H      1.167700   -3.749300   -1.874400
H      2.273400   -2.708400   -3.851600
H      2.270300   -0.197500   -4.018100
H      1.173100    1.129000   -2.235100
