19
gdb_18731
O     -0.050600    1.444600   -0.016600
C     -0.000600    0.021800    0.031400
C      0.794700   -0.506300    1.229900
C      0.578600   -2.016400    1.359200
C     -0.888700   -2.325500    1.677100
N     -1.865100   -1.637300    0.810400
C     -2.304800   -0.303800    1.211100
C     -1.435200   -0.472000    0.019700
H      0.849400    1.766400   -0.136100
H      0.483200   -0.362900   -0.882600
H      1.856800   -0.270000    1.091200
H      0.472100    0.011000    2.141400
H      0.863400   -2.504900    0.417900
H      1.217300   -2.444700    2.139200
H     -1.066900   -3.402600    1.580800
H     -1.096300   -2.065500    2.723300
H     -3.365600   -0.097400    1.090600
H     -1.859700    0.139800    2.099900
H     -1.903000   -0.421000   -0.961600
