12
gdb_23756
O      0.088100    1.367000   -0.063700
C      0.057500    0.017900   -0.050600
C      0.021200   -0.717100   -1.231500
C     -0.009100   -2.105600   -1.144600
N     -0.005900   -2.792800    0.001600
C      0.029000   -2.084800    1.134400
C      0.060700   -0.704100    1.143500
F      0.095700   -0.004800    2.294600
H      0.110300    1.676100    0.851300
H      0.017200   -0.205000   -2.186200
H     -0.037600   -2.697800   -2.055500
H      0.032200   -2.625900    2.077200
