11
gdb_911
O      0.003200   -0.084500    0.003000
C     -0.013400    1.136900    0.009500
C     -1.244300    1.938500    0.030300
C     -1.201200    3.279600    0.036800
O     -0.052200    3.997200    0.025300
C      1.115900    3.311200    0.006100
C      1.195400    1.971800   -0.002000
H     -2.199500    1.427900    0.040300
H     -2.064300    3.933400    0.051800
H      1.961000    3.988300   -0.001500
H      2.164000    1.487400   -0.017500
