13
gdb_5494
C     -0.034600    1.501400    0.059700
C     -0.011400    0.007600    0.023400
C     -0.028200   -0.811100   -1.057900
O      0.003500   -2.125800   -0.685200
C      0.041400   -2.158100    0.657500
C      0.035100   -0.887400    1.161700
C      0.067400   -0.519600    2.528600
N      0.093300   -0.194400    3.640000
H      0.855700    1.899900    0.557700
H     -0.073100    1.916600   -0.950300
H     -0.904100    1.871300    0.613100
H     -0.061000   -0.627300   -2.118800
H      0.069900   -3.129400    1.122300
