14
gdb_16497
O      0.144500    1.422900    0.055400
C      0.032900    0.031700   -0.000800
C      0.202700   -0.756800    1.328600
O     -0.750000   -0.078600    2.212200
C     -1.774600   -0.707100    1.425900
C     -0.889600   -1.767100    0.849400
C     -1.351200   -0.629000   -0.051800
O     -2.226100   -0.739600   -1.105800
H     -0.238400    1.670400    0.909200
H      0.684300   -0.347200   -0.792100
H      1.165300   -0.956900    1.792300
H     -2.795900   -0.722700    1.782400
H     -0.948400   -2.842600    0.775900
H     -2.676900    0.105400   -1.216000
