18
gdb_546
C     -0.036400    1.511400    0.043500
C      0.019900   -0.016500   -0.025300
C      0.728700   -0.518400   -1.275800
O      0.737700   -1.928700   -1.261600
C      1.374700   -2.496100   -2.386000
C      1.324300   -4.009600   -2.261200
H      0.968200    1.948800    0.051600
H     -0.572400    1.931000   -0.815000
H     -0.549900    1.845500    0.949600
H      0.538600   -0.418100    0.852900
H     -0.992700   -0.435700   -0.007800
H      0.216700   -0.146300   -2.181400
H      1.761600   -0.127700   -1.313300
H      0.874800   -2.168000   -3.313900
H      2.420500   -2.148100   -2.448200
H      1.834200   -4.336400   -1.350400
H      0.287800   -4.356000   -2.215300
H      1.810900   -4.480600   -3.120600
