20
gdb_5955
C      0.090100    1.556800    0.084300
C      0.045300    0.032800   -0.055200
C      0.670500   -0.534700   -1.342900
C      0.604400   -2.066200   -1.315700
C      0.008100    0.038200   -2.601900
O      2.069000   -0.102400   -1.259600
C      2.939300   -0.403600   -2.232600
O      4.088400   -0.068900   -2.190500
H      1.114100    1.925400   -0.014900
H     -0.528400    2.057200   -0.667000
H     -0.284800    1.856500    1.067300
H      0.572400   -0.423500    0.790300
H     -0.991700   -0.320100   -0.005500
H     -0.437900   -2.394100   -1.257000
H      1.040200   -2.511600   -2.214300
H      1.137200   -2.455400   -0.443700
H      0.184900    1.113000   -2.683100
H      0.378400   -0.439900   -3.512800
H     -1.072500   -0.130200   -2.559300
H      2.505000   -0.981900   -3.066800
