17
gdb_8291
O      0.092300    1.536300    0.078500
C      0.131000    0.133500   -0.001900
C      0.225100   -0.607000    1.359700
N     -1.243700   -0.778300    1.317700
C     -1.836200   -1.976900    1.860300
C     -3.351700   -1.865200    1.924800
O     -4.110100   -2.787800    1.784900
C     -1.248000   -0.562700   -0.148200
H     -0.574100    1.772100    0.734300
H      0.887100   -0.111800   -0.747800
H      0.781000   -1.555100    1.281500
H      0.604900   -0.033500    2.212300
H     -1.568500   -2.902900    1.320600
H     -1.491900   -2.093300    2.899100
H     -3.708900   -0.831100    2.133900
H     -2.072800    0.046000   -0.533600
H     -1.187500   -1.499700   -0.725200
