17
gdb_10806
C      0.021500    1.549900    0.033900
C     -0.022100    0.051400   -0.003500
C     -0.048400   -0.641900   -1.145300
N     -0.070000   -2.044300   -1.179500
C     -0.312700   -2.849900   -0.089200
O     -0.272400   -4.061200   -0.162000
C     -0.693600   -2.078200    1.167600
C      0.012800   -0.718900    1.297600
H      0.908900    1.907600    0.573500
H      0.045900    1.979600   -0.971800
H     -0.848600    1.967300    0.557700
H     -0.043900   -0.167200   -2.120200
H      0.105200   -2.528800   -2.046500
H     -1.779300   -1.919300    1.110300
H     -0.508500   -2.727300    2.025200
H      1.059000   -0.866500    1.606900
H     -0.455600   -0.139000    2.100600
