14
gdb_7943
N      0.060200    1.464900    0.243400
C     -0.036200    0.039400   -0.032100
C     -1.475300   -0.482200   -0.177500
C     -1.437600   -1.473400   -1.338100
O     -2.301500   -2.225700   -1.705400
N     -0.188600   -1.334300   -1.944200
C      0.660000   -0.424200   -1.329100
O      1.735700   -0.068900   -1.740500
H      1.042700    1.728500    0.247400
H     -0.360400    1.989900   -0.520100
H      0.469800   -0.490500    0.785100
H     -1.876500   -0.959800    0.717500
H     -2.162500    0.328700   -0.443700
H      0.055800   -1.830800   -2.790500
