20
gdb_19550
C     -0.300500    1.514500    0.021500
C      0.087400    0.029300    0.052600
C      0.779000   -0.433600   -1.189200
C      0.294000   -0.729100   -2.592100
C      1.354400    0.172000   -3.217600
C      2.150700   -0.028700   -1.899800
C      2.530400   -1.534000   -1.912700
C      1.035300   -1.804200   -1.772400
H      0.583000    2.149700   -0.102100
H     -0.980400    1.724200   -0.810500
H     -0.798200    1.812200    0.949700
H      0.725900   -0.161800    0.926400
H     -0.813000   -0.582200    0.198800
H     -0.726700   -0.892100   -2.916700
H      1.840100   -0.142900   -4.149600
H      0.993100    1.199000   -3.322600
H      2.860000    0.722600   -1.556700
H      3.062800   -1.911200   -2.794700
H      3.071900   -1.824500   -1.007700
H      0.541700   -2.731800   -1.508300
