19
gdb_17894
C     -0.171400    1.413900   -0.019900
N      0.052600   -0.023800    0.018900
C      1.240600   -0.493200   -0.780200
C      2.157300   -0.307300    0.455400
C      0.824100   -0.504200    1.220600
C      0.521600   -1.999000    1.331500
O      1.053500   -2.702800    0.212600
C      1.010700   -1.986100   -1.018200
H      0.723300    2.033700    0.169700
H     -0.566200    1.689100   -1.003700
H     -0.926600    1.679600    0.727400
H      1.438700    0.053300   -1.706500
H      2.960400   -1.028800    0.618700
H      2.543400    0.708900    0.541400
H      0.634900    0.032200    2.154700
H      0.996000   -2.441100    2.214900
H     -0.567500   -2.135200    1.404500
H      0.041500   -2.119200   -1.521200
H      1.799200   -2.420000   -1.643600
