16
gdb_20764
C     -0.027300    1.490200   -0.026500
C      0.007900   -0.003700    0.024600
N     -0.011500   -0.690200   -1.093600
O      0.030400   -2.044700   -0.691200
C      0.071500   -2.092800    0.645500
N      0.178400   -3.348800    1.201800
C      0.057600   -0.834800    1.184200
C      0.096200   -0.430300    2.624200
H      0.869600    1.921500    0.431000
H     -0.087300    1.827400   -1.063000
H     -0.892300    1.882600    0.519500
H     -0.206100   -4.082700    0.622500
H     -0.144800   -3.407500    2.156600
H      1.102800   -0.148000    2.957800
H     -0.559100    0.425900    2.816200
H     -0.240900   -1.241500    3.279500
