21
gdb_10517
C     -0.631100    0.866500    0.601100
C      0.250800   -0.335200    0.235900
C      0.553200   -0.455000   -1.248400
C      1.388500    0.653400   -1.853200
O      2.631600    0.698600   -1.182100
C      3.469600    1.725600   -1.652700
C      0.642700   -1.807600   -1.852500
N     -0.502200   -0.928300   -2.165000
H     -0.135100    1.814700    0.373400
H     -1.580800    0.848700    0.055400
H     -0.860400    0.865400    1.671000
H      1.200900   -0.270500    0.777000
H     -0.238400   -1.259800    0.567500
H      1.523600    0.462000   -2.928800
H      0.868600    1.622100   -1.761600
H      4.395000    1.687100   -1.072600
H      3.713500    1.598100   -2.719500
H      3.010800    2.719400   -1.525400
H      1.318000   -1.990400   -2.684000
H      0.478900   -2.666200   -1.206500
H     -1.314400   -1.221400   -1.626200
