17
gdb_20837
C      0.102600    1.462300   -0.062800
C     -0.077800   -0.055200    0.098200
C     -1.514000   -0.470500    0.065200
N     -2.118300   -1.047600    1.096700
N     -3.381300   -1.237800    0.639000
C     -4.386700   -1.858100    1.472100
C     -3.475000   -0.773700   -0.622400
N     -2.319800   -0.280900   -1.023300
H      1.164300    1.726700   -0.076200
H     -0.350800    1.805100   -0.996600
H     -0.372300    2.002800    0.762100
H      0.454700   -0.569200   -0.710900
H      0.355700   -0.397700    1.042000
H     -5.322200   -1.913100    0.912200
H     -4.074400   -2.866800    1.754500
H     -4.542300   -1.268900    2.379500
H     -4.389800   -0.819000   -1.195300
