18
gdb_17733
C      0.016900    1.562400    0.006400
C      1.342200    0.805300   -0.009900
C      0.043700    0.070700    0.002400
C     -0.538600   -0.969200    0.954400
C     -1.778400   -1.215800    0.018900
C     -1.562800   -2.742000    0.012700
C     -0.138800   -2.152300   -0.001300
C     -0.559200   -0.964400   -0.942000
H     -0.259200    2.077800    0.921400
H     -0.279200    2.082300   -0.899700
H      1.923400    0.824100   -0.926900
H      1.943300    0.819600    0.894200
H     -0.538000   -0.991900    2.045700
H     -2.708600   -0.645700    0.030500
H     -1.862700   -3.286400    0.914100
H     -1.882200   -3.281800   -0.884800
H      0.824800   -2.664000   -0.013100
H     -0.582400   -0.981400   -2.033100
