17
gdb_5109
C      0.038100    1.438500   -0.007000
N      0.037500   -0.008900   -0.011100
C      0.008400   -0.828600   -1.138000
C     -0.026000   -0.263700   -2.517700
C      0.018600   -2.127800   -0.698600
C      0.054400   -2.123200    0.730700
C      0.064800   -0.803400    1.104500
O      0.095500   -0.186500    2.318400
H      0.911800    1.834800   -0.535600
H     -0.864500    1.835800   -0.483700
H      0.068400    1.784600    1.025700
H      0.851700    0.356300   -2.745400
H     -0.045500   -1.081100   -3.242400
H     -0.912300    0.358700   -2.700500
H      0.002000   -2.999900   -1.335000
H      0.070400   -2.975800    1.392000
H      0.114400   -0.868500    2.995600
