22
gdb_13976
C     -0.016200    1.598500   -0.095900
C     -0.031000    0.068700   -0.144600
C     -1.411200   -0.531400    0.167000
C     -1.424600   -2.035000    0.135700
C     -1.583000   -2.827600   -1.135400
C     -2.586700   -3.022500   -0.029800
C     -1.998900   -3.937900    1.048900
C     -0.804600   -2.941400    1.215100
H      0.978500    1.997000   -0.319100
H     -0.716300    2.024800   -0.823400
H     -0.307400    1.966700    0.894400
H      0.291600   -0.275300   -1.135300
H      0.703500   -0.328100    0.568100
H     -1.740600   -0.180000    1.155600
H     -2.145200   -0.145700   -0.553800
H     -1.939600   -2.260700   -1.990400
H     -0.886200   -3.624300   -1.391300
H     -3.640600   -2.815900   -0.179100
H     -2.614400   -3.997600    1.949300
H     -1.752100   -4.956600    0.730100
H      0.198400   -3.328300    1.005400
H     -0.794400   -2.473300    2.203300
