18
gdb_19980
C     -0.133300   -1.218500    0.020900
C     -0.063400   -0.017000    0.024900
C      0.009400    1.414100    0.021900
C      0.510500    2.158400    1.253600
C      1.358200    2.134800    0.014800
C      2.642000    1.373600   -0.033000
C      3.493900    1.398800   -1.277500
C      3.958800    2.112000   -0.031800
H     -0.198000   -2.278000    0.017500
H     -0.784500    1.903200   -0.535200
H     -0.001400    3.074100    1.528100
H      0.828600    1.548200    2.091500
H      1.363700    3.050700   -0.571700
H      2.619400    0.431800    0.506500
H      3.999500    0.486300   -1.572600
H      3.154100    2.005300   -2.110900
H      3.931500    3.197000   -0.029100
H      4.785000    1.690000    0.529700
