9
gdb_23896
F      0.016300    0.048600   -0.020600
C     -0.014200    1.384500    0.005300
F      1.245400    1.826600   -0.033900
F     -0.639300    1.804000   -1.097900
C     -0.699000    1.874600    1.207500
C     -1.258000    2.289200    2.188900
C     -1.937900    2.754300    3.383100
O     -2.094500    3.919900    3.649300
H     -2.306200    1.942200    4.038800
