12
gdb_950
O      0.103800    1.363100    0.132200
C      0.069600    0.012200    0.040500
C      0.075800   -0.674900   -1.173800
C      0.038200   -2.065100   -1.145200
N     -0.003800   -2.794300   -0.028000
C     -0.008800   -2.114000    1.124400
C      0.026100   -0.729700    1.221300
H      0.131800    1.742400   -0.753200
H      0.109000   -0.142400   -2.120000
H      0.042200   -2.619300   -2.081300
H     -0.043100   -2.713000    2.031500
H      0.020200   -0.225900    2.180300
