16
gdb_11844
N     -0.890300   -0.665500   -1.030700
C     -0.451000    0.275900   -0.522600
C      0.110700    1.444100    0.130900
C      0.017300    1.520600    1.693500
C      1.468000    2.016900    1.689900
C      1.970800    3.255400    2.323900
N      2.462200    1.924300    2.742200
C      1.670600    1.542400    0.248100
H     -0.304100    2.345200   -0.327300
H     -0.754600    2.173600    2.105900
H     -0.079100    0.523600    2.132900
H      2.707700    3.871600    1.815100
H      1.301900    3.800200    2.986000
H      2.030800    1.645700    3.620700
H      2.144700    0.559000    0.205200
H      2.167600    2.216400   -0.451500
