15
gdb_21661
N     -0.017300    1.374000    0.167800
C      0.044600   -0.019400    0.046500
N     -1.059400   -0.759200    0.023800
N     -0.598600   -2.034400   -0.012800
C      0.751500   -2.109000   -0.028500
C      1.220900   -0.813900    0.012800
C      2.641600   -0.356700    0.049900
O      3.482700   -1.499800   -0.003000
H      0.596800    1.852800   -0.479900
H     -0.967300    1.701600    0.038900
H     -1.260500   -2.789200   -0.027500
H      1.282500   -3.045900   -0.059100
H      2.850100    0.321200   -0.798000
H      2.822600    0.230300    0.966400
H      4.393700   -1.203100    0.072900
