18
gdb_9886
C     -1.380200    1.443300   -0.227500
C     -0.467200    0.237600   -0.168300
C     -1.006700   -0.963400    0.592600
N     -1.044900   -0.709100    2.022700
C     -2.184100   -0.720600    2.762000
O     -3.296100   -0.960300    2.338800
C      0.510600    0.007400   -1.260100
N      0.977300    0.445800    0.071800
H     -0.904400    2.271300   -0.763000
H     -2.317300    1.202700   -0.740400
H     -1.635700    1.788600    0.779700
H     -2.028000   -1.202100    0.287300
H     -0.372600   -1.834100    0.391900
H     -0.172900   -0.467600    2.467700
H     -1.982200   -0.483600    3.825900
H      0.799400   -1.003400   -1.536000
H      0.535400    0.721400   -2.079000
H      1.191200    1.440100    0.045100
