15
gdb_1108
C      0.031700    1.534900   -0.084500
C      0.188400    0.038000    0.017700
N      1.332600   -0.502300    0.086600
N     -1.058600   -0.636700    0.025100
C     -1.270300   -2.000200    0.107800
C     -2.737800   -2.396500    0.090800
O     -0.369700   -2.811700    0.186900
H      1.020100    1.992100   -0.084800
H     -0.493600    1.815000   -1.005300
H     -0.546400    1.930100    0.759300
H      1.244000   -1.517400    0.150100
H     -1.880400   -0.055700   -0.036900
H     -3.223200   -2.058600   -0.831000
H     -2.806300   -3.481600    0.157000
H     -3.273100   -1.948000    0.934500
