16
gdb_9636
C      0.093400    1.489200   -0.197600
C     -0.030800    0.017100    0.143000
O      1.198900   -0.739400    0.161600
C      0.487300   -0.585200    1.396500
C      1.212800    0.158800    2.491200
O      2.239600   -0.648600    3.042800
C     -1.140800   -0.650500   -0.504000
C     -2.076400   -1.170600   -1.050300
H      0.975600    1.931600    0.265900
H      0.177500    1.607600   -1.281600
H     -0.796900    2.032500    0.132700
H      0.002500   -1.502300    1.734100
H      1.609200    1.112800    2.120500
H      0.519600    0.376500    3.310900
H      2.832900   -0.880600    2.319300
H     -2.898600   -1.642700   -1.529300
