22
gdb_5857
C      0.108300    1.539200    0.009300
C      0.055500    0.083500    0.001900
C      0.023900   -1.120900   -0.004200
C     -0.019800   -2.579800   -0.011600
C     -1.450500   -3.195900   -0.001300
C     -2.223800   -2.742600   -1.250500
C     -1.306000   -4.727200   -0.010900
C     -2.199900   -2.756100    1.267200
H      1.143400    1.899200    0.001100
H     -0.394200    1.963000   -0.867400
H     -0.376900    1.953500    0.900200
H      0.514300   -2.953500   -0.895800
H      0.531000   -2.962900    0.858300
H     -1.715300   -3.062200   -2.167300
H     -3.231200   -3.172500   -1.260700
H     -2.317100   -1.653300   -1.280900
H     -0.755000   -5.081100    0.867800
H     -2.288800   -5.210400   -0.004100
H     -0.771900   -5.071600   -0.903600
H     -2.292500   -1.667100    1.311000
H     -3.206900   -3.186200    1.291900
H     -1.674100   -3.085500    2.170700
