19
gdb_11745
C     -0.065500    1.573100    0.117100
C      0.039300    0.057700    0.031600
C      1.062300   -0.575800   -0.986600
C      1.730600   -1.302400    0.188800
C      2.346800   -2.660200    0.194100
O      3.617800   -2.591000   -0.441200
N      2.197800   -0.227300    1.099100
C      0.787000   -0.678000    1.158700
H      0.917400    2.008900    0.314700
H     -0.448500    1.994200   -0.819000
H     -0.744400    1.878500    0.921400
H     -0.948800   -0.390700   -0.113600
H      0.584600   -1.250400   -1.701200
H      1.710600    0.123800   -1.518800
H      2.438000   -3.011700    1.236700
H      1.680900   -3.364100   -0.330600
H      3.948800   -3.488300   -0.544800
H      2.694500   -0.677200    1.868200
H      0.374700   -1.074000    2.080600
