19
gdb_3467
C     -0.157300    1.536500    0.002500
C      0.013700    0.022600    0.017900
C      1.127700   -0.598200   -0.889500
C      2.128100   -0.276000    0.258200
C      0.895200   -0.603600    1.149500
C      0.711900   -2.110600    0.881600
C      0.889600   -2.106400   -0.677700
H      0.786200    2.078500    0.111900
H     -0.615900    1.863100   -0.937700
H     -0.816700    1.858300    0.816500
H     -0.973000   -0.444500   -0.095800
H      1.291000   -0.254200   -1.912500
H      3.012100   -0.914200    0.357300
H      2.430000    0.770500    0.295400
H      0.823900   -0.265200    2.184900
H      1.465800   -2.719200    1.389500
H     -0.273600   -2.471200    1.191000
H     -0.000700   -2.464800   -1.202900
H      1.738900   -2.712800   -1.006000
