14
gdb_15497
N      0.001100    1.347900    0.010700
C      0.064800    0.078200    0.003600
C      1.229100   -0.832300   -0.008400
C      0.830900   -2.104400   -0.013000
C     -0.666500   -2.184400   -0.004400
N     -1.066600   -0.776400    0.005800
C     -2.403300   -0.422500    0.017200
O     -2.858200    0.689700    0.026800
H      0.945600    1.733900    0.007100
H      2.245200   -0.460900   -0.012600
H      1.456600   -2.986900   -0.021600
H     -1.054000   -2.708400   -0.889200
H     -1.043500   -2.718200    0.879200
H     -3.037700   -1.334700    0.016500
