15
gdb_20903
C      0.086200    1.557700    0.015700
C     -0.017600    0.034600   -0.067600
N      0.652600   -0.513800   -1.238500
C      0.121200   -0.928400   -2.422700
N      0.994500   -1.349300   -3.272000
O      2.241400   -1.195400   -2.590300
C      2.027600   -0.679400   -1.341100
N      2.871900   -0.399500   -0.439000
H      1.135500    1.858400    0.056600
H     -0.385700    2.035200   -0.848500
H     -0.412700    1.915200    0.921300
H      0.449600   -0.423500    0.808700
H     -1.061200   -0.291700   -0.104300
H     -0.938300   -0.914200   -2.633000
H      3.817100   -0.619600   -0.741500
