16
gdb_13995
C     -0.067300   -1.222700    0.130000
C     -0.061500   -0.019200    0.094000
C     -0.012200    1.408700    0.041500
C      0.559800    2.219500    1.217500
C      1.327800    2.117100   -0.046100
C      2.690300    1.517300   -0.357800
C      2.800100    2.704200   -1.340700
O      1.511900    3.222700   -0.919700
H     -0.090500   -2.283300    0.166700
H     -0.813500    1.897500   -0.505600
H      0.071300    3.164100    1.430600
H      0.909300    1.668000    2.083600
H      3.403200    1.534500    0.468600
H      2.666600    0.521000   -0.801400
H      3.602900    3.421900   -1.143600
H      2.799400    2.439900   -2.403700
