11
gdb_3414
O      0.037400   -0.005600   -0.056000
C     -0.007400    1.197600    0.002500
C     -1.223000    2.064800    0.083600
C     -0.879600    3.357200    0.008200
C      0.615700    3.507700   -0.055700
O      1.266800    2.991800    1.121900
C      1.183300    2.157400   -0.047200
H     -2.217300    1.654100    0.201000
H     -1.556500    4.202400    0.036000
H      1.092800    4.360600   -0.526300
H      2.120300    1.861700   -0.507100
