18
gdb_17340
O     -0.027900    1.405000    0.058400
C      0.071800    0.013100    0.022600
C     -0.575100   -0.726300    1.149100
C      0.936400   -0.784500    0.983400
C      1.590500   -1.935100    0.214600
C      1.123300   -1.821100   -1.244700
C     -0.330700   -2.041300   -1.574500
C      0.181100   -0.639000   -1.351000
H      0.781500    1.768900   -0.317700
H     -0.928400   -0.105200    1.965300
H     -1.188000   -1.600100    0.959900
H      1.519900   -0.276300    1.743900
H      2.679100   -1.820000    0.255300
H      1.363800   -2.917700    0.645800
H      1.850900   -2.032800   -2.021100
H     -0.566200   -2.320200   -2.596600
H     -0.985000   -2.499600   -0.841600
H      0.196200    0.046100   -2.191500
