13
gdb_11328
C     -0.077000    1.436100   -0.027400
N     -0.109600   -0.015500   -0.108600
C      0.524300   -0.623900   -0.993900
C      0.586500   -2.117500   -1.203100
O      1.441300   -2.266000   -2.339600
C      1.852100   -1.056200   -2.776500
O      2.567300   -0.859200   -3.700000
O      1.316200   -0.062700   -1.987100
H      0.537900    1.916200   -0.795700
H     -1.102100    1.813200   -0.101900
H      0.296700    1.722400    0.961000
H      1.021500   -2.636600   -0.344900
H     -0.395600   -2.544600   -1.422800
