20
gdb_10615
C      0.516400    0.954500    0.346000
O     -0.050400   -0.289000    0.733700
C     -1.340900   -0.542000    0.256800
C     -2.448500    0.157100    1.007400
O     -2.480600    1.535000    0.641500
C     -1.513800   -0.822300   -1.218900
C     -1.580200   -1.956400   -0.216400
C     -0.479800   -2.991200   -0.153500
H      1.537000    0.962800    0.737800
H      0.553200    1.055900   -0.747500
H     -0.044600    1.801600    0.751700
H     -3.407900   -0.329100    0.772700
H     -2.263500    0.039300    2.085700
H     -3.093500    1.984800    1.231000
H     -2.419900   -0.484500   -1.709600
H     -0.620600   -0.765400   -1.832000
H     -2.575300   -2.345800   -0.014800
H      0.499100   -2.524400   -0.280000
H     -0.477500   -3.506800    0.813000
H     -0.610700   -3.746000   -0.936400
