20
gdb_18259
C      0.081400    1.525000   -0.030100
C      0.000300   -0.003500    0.027600
C     -1.432300   -0.550700    0.012900
C     -2.235300   -0.231900   -1.278900
C     -3.252200   -1.386600   -1.450500
C     -2.579500   -2.562700   -0.771100
O     -1.201000   -2.727300   -1.139300
C     -1.509600   -2.066300    0.099600
H      1.120500    1.866200    0.009300
H     -0.360100    1.916700   -0.952100
H     -0.450400    1.982300    0.812300
H      0.545800   -0.439900   -0.818200
H      0.506600   -0.357700    0.935200
H     -1.971900   -0.151700    0.885700
H     -2.721800    0.745200   -1.238000
H     -1.549900   -0.220800   -2.130900
H     -4.194500   -1.172900   -0.930400
H     -3.495000   -1.581100   -2.499900
H     -3.120300   -3.485500   -0.575200
H     -1.184100   -2.589500    0.996500
