15
gdb_8250
O      0.104100    0.062500    0.338800
C      0.025400    1.215400    0.036400
C     -1.151100    2.197400   -0.116500
C     -0.156900    3.202100   -0.779200
C     -0.146800    4.619700   -0.194400
C      0.919700    5.447800   -0.756100
N      1.770500    6.082700   -1.212400
C      1.045000    2.273300   -0.417500
H     -1.993500    1.845600   -0.716900
H     -1.534700    2.529100    0.855500
H     -0.303700    3.257100   -1.859900
H     -1.107400    5.114500   -0.379400
H     -0.017800    4.578700    0.894300
H      1.655000    2.641300    0.415500
H      1.717000    1.975700   -1.225600
