16
gdb_13241
N     -0.169800   -1.129700   -0.156500
C     -0.092900    0.012000   -0.001000
C      0.014600    1.456000    0.225400
N      1.287800    1.970300   -0.268600
C      1.446300    3.394600   -0.090600
C      1.779500    4.015700    1.299600
O      2.951200    4.657300    0.761800
C      2.813700    3.974900   -0.499900
H     -0.797800    1.952700   -0.319800
H     -0.169300    1.642300    1.298600
H      2.056300    1.467600    0.165400
H      0.605200    3.896500   -0.578600
H      1.070100    4.739500    1.717200
H      2.030400    3.271300    2.070700
H      3.588000    3.208100   -0.646300
H      2.830600    4.663500   -1.351100
