19
gdb_2211
C     -0.215400    1.538400    0.099700
C      0.039700    0.049700    0.012700
C     -1.185900   -0.899900    0.160800
C     -0.440000   -1.709400    1.264600
C      0.797600   -0.787600    1.118500
C      1.828700   -1.249900    0.057500
C      1.074800   -0.442200   -1.042100
H      0.722300    2.102800    0.161400
H     -0.758400    1.896400   -0.784500
H     -0.817000    1.791100    0.980600
H     -2.082800   -0.392600    0.528100
H     -1.458700   -1.453900   -0.742600
H     -0.921000   -1.644900    2.243900
H     -0.260200   -2.766800    1.047500
H      1.194600   -0.343300    2.033700
H      2.841600   -0.882900    0.242000
H      1.886000   -2.332200   -0.094400
H      0.657400   -1.025500   -1.868500
H      1.672500    0.367800   -1.470200
