17
gdb_17295
C     -0.072100    1.511800   -0.008600
C      0.023900    0.011300    0.063300
O     -1.249500   -0.662500   -0.003300
C     -0.938300   -1.470000    1.162200
C      0.451900   -0.813200    1.305800
C      1.610200   -1.410100    0.473900
N      1.009200   -2.115900   -0.677500
C      1.186400   -0.648900   -0.740800
H      0.914300    1.971800    0.113300
H     -0.470900    1.815600   -0.983300
H     -0.739000    1.896500    0.767900
H     -1.628100   -1.250800    1.986000
H     -0.946300   -2.538300    0.932400
H      0.722300   -0.341200    2.249100
H      2.601800   -1.663900    0.827600
H      1.772800   -2.528500   -1.212100
H      1.772500   -0.197900   -1.534100
