14
gdb_2596
O      0.115500    1.346900    0.330200
C     -0.008900    0.036700   -0.184100
C     -1.418700   -0.519100   -0.031800
C     -1.582400   -1.975300    0.260400
N     -1.861100   -0.984700    1.302300
C     -2.405400    0.199200   -0.803200
C     -3.167900    0.843600   -1.474100
H     -0.532300    1.896700   -0.126500
H      0.286900   -0.013900   -1.243400
H      0.688500   -0.585300    0.388300
H     -2.454300   -2.498100   -0.119800
H     -0.677100   -2.575300    0.320200
H     -1.078600   -0.910100    1.949200
H     -3.866900    1.390900   -2.057200
