11
gdb_21616
N      0.021700    1.361200    0.143600
C     -0.035900   -0.006300    0.038000
N     -1.132900   -0.739800    0.048900
C     -0.635700   -2.013400    0.000000
N      0.683000   -2.117500   -0.048000
N      1.055400   -0.811100   -0.019500
C     -1.474900   -3.167500   -0.008500
N     -2.164000   -4.095500   -0.015900
H      0.750800    1.819600   -0.383500
H     -0.882400    1.792000    0.010000
H      2.033800   -0.574500   -0.000500
