18
gdb_15728
O     -0.217200    1.476300    0.056400
C     -0.004900    0.071300    0.144400
C     -1.355600   -0.595800   -0.054400
C     -1.994100   -0.366700   -1.430700
O     -2.953800   -1.412500   -1.593000
C     -2.667800   -2.470900   -0.687600
C     -1.347000   -2.129000    0.017100
O     -0.209400   -2.589500   -0.705500
H      0.640300    1.910200    0.084300
H      0.696100   -0.280100   -0.623200
H      0.409500   -0.208400    1.126200
H     -2.041700   -0.226600    0.717400
H     -2.508600    0.593700   -1.510200
H     -1.232100   -0.422400   -2.221900
H     -3.486800   -2.567900    0.040700
H     -2.590800   -3.420700   -1.235600
H     -1.327000   -2.504400    1.050100
H     -0.281200   -3.543600   -0.804300
