19
gdb_2528
C      0.742900   -0.214500    1.360100
C      0.044500   -0.078500    0.006100
C     -1.396900   -0.640500   -0.017600
C     -2.092400   -0.346200   -1.368100
C     -3.566000   -0.754400   -1.410700
C     -1.411600   -2.072100    0.284200
C     -1.408000   -3.254100    0.508400
H      1.755900    0.197400    1.320700
H      0.195500    0.322200    2.143200
H      0.813900   -1.263400    1.661800
H     -0.005400    0.979100   -0.280900
H      0.630200   -0.586700   -0.769300
H     -1.968100   -0.125600    0.770200
H     -1.999700    0.729200   -1.563300
H     -1.539500   -0.858600   -2.164600
H     -3.681800   -1.826700   -1.229100
H     -4.146200   -0.221800   -0.648700
H     -4.007300   -0.524900   -2.385400
H     -1.412900   -4.294800    0.718200
