17
gdb_1314
C      0.336500    1.470300   -0.083800
C     -0.016800   -0.010800   -0.014600
O     -1.418400   -0.205500    0.013300
C      0.798500   -0.897800   -1.011200
C      1.775300   -1.240700    0.146500
C      0.681000   -0.764800    1.141000
O      1.038900    0.034800    2.242700
H      1.417700    1.630500   -0.069800
H     -0.053400    1.905000   -1.013000
H     -0.096000    2.002300    0.767000
H     -1.817500    0.377500   -0.641000
H      0.204100   -1.759500   -1.323400
H      1.214500   -0.406500   -1.894000
H      2.123200   -2.272200    0.231800
H      2.637800   -0.569500    0.173600
H      0.036200   -1.602000    1.440400
H      1.366100   -0.538000    2.942400
