14
gdb_12978
C     -0.078000    1.531200    0.029300
C      0.134000    0.048400    0.022900
O     -0.731900   -0.771500    0.839500
C      0.691200   -0.793000    1.086800
C      1.366000   -1.966700    0.433600
C      1.210500   -1.921900   -0.896100
C      0.479400   -0.679800   -1.285900
O      0.226800   -0.286700   -2.398300
H      0.831500    2.053000   -0.284200
H     -0.871700    1.797200   -0.675100
H     -0.359500    1.873100    1.027800
H      1.007500   -0.410400    2.051900
H      1.862800   -2.750000    0.993600
H      1.534700   -2.656100   -1.622000
