17
gdb_14921
N     -0.012200   -1.148000   -0.064900
C      0.015600    0.005700   -0.026500
C     -0.006800    1.473900    0.037000
C     -0.766400    1.974000    1.280700
C     -0.694200    3.506200    1.341200
C      0.762700    3.975800    1.225300
C      1.420200    3.347100   -0.003100
O      1.335400    1.924900    0.023000
H     -0.530200    1.834600   -0.866900
H     -1.802200    1.622400    1.242200
H     -0.298600    1.532900    2.167500
H     -1.282100    3.930300    0.515800
H     -1.149000    3.867400    2.268700
H      0.819000    5.067500    1.153800
H      1.323200    3.676200    2.118800
H      0.947600    3.729500   -0.924100
H      2.487800    3.574800   -0.052800
