17
gdb_5064
C     -0.065900    1.509500    0.098200
C      0.010300    0.022300   -0.020300
C      0.030500   -0.804500   -1.131100
C     -0.020400   -0.423300   -2.579400
C      0.111700   -2.144400   -0.640700
O      0.156400   -3.288600   -1.389300
C      0.138900   -2.110400    0.730100
N      0.076100   -0.777700    1.090700
H      0.807800    1.928600    0.613600
H     -0.110800    1.970800   -0.890600
H     -0.956900    1.835400    0.650200
H      0.870400   -0.758900   -3.128200
H     -0.893800   -0.851300   -3.090600
H     -0.079900    0.660500   -2.709100
H      0.123500   -3.041200   -2.317800
H      0.196200   -2.901300    1.457800
H      0.078400   -0.441900    2.036900
