10
gdb_4629
N     -0.141800    1.263400    0.011100
C     -0.029100    0.019800    0.003100
O      1.136500   -0.740100   -0.007400
C      0.761600   -2.049900   -0.013200
C     -0.574300   -2.123500   -0.006600
O     -1.091800   -0.838100    0.003700
C     -1.449400   -3.226700   -0.008400
N     -2.152100   -4.146900   -0.010100
H      0.765200    1.721400    0.009100
H      1.531500   -2.801400   -0.021700
