17
gdb_16744
O     -0.778200    1.584100    0.740900
C     -0.038500    1.570600   -0.209300
C      1.445900    1.888000   -0.181300
C      1.858900    2.902600   -1.282700
C      2.036400    4.212000   -0.529300
C      0.953700    4.650000    0.388900
N      2.142100    3.967700    0.921900
C      1.945900    2.522600    1.139800
H     -0.417300    1.288600   -1.219900
H      1.932600    0.921600   -0.370000
H      2.808700    2.608600   -1.739100
H      1.121300    2.968600   -2.090400
H      2.719300    4.946600   -0.947000
H      0.875400    5.697400    0.666000
H      0.004800    4.120300    0.380200
H      1.239800    2.347400    1.955500
H      2.913600    2.098400    1.423600
