18
gdb_18068
O     -0.375000    0.205700   -0.157700
C      0.075900    1.314500   -0.026500
C      1.490500    1.725200   -0.373800
C      1.504000    2.916000   -1.320000
C      1.264600    4.352800   -0.928100
C      1.897300    4.692500    0.428700
C      3.286700    4.231500   -0.118600
C      2.631400    3.904200   -1.466100
H     -0.553000    2.146100    0.369400
H      1.995200    1.976200    0.568000
H      2.007600    0.864000   -0.807900
H      1.051300    2.684900   -2.282800
H      0.502600    4.946200   -1.419800
H      1.878100    5.763700    0.638800
H      1.499400    4.168000    1.304000
H      3.993100    5.061000   -0.188600
H      3.783700    3.404200    0.399000
H      3.077800    4.095000   -2.435000
