18
gdb_1662
C      0.252200    1.500900    0.125000
N      0.334000    0.055200    0.056200
C      0.233200   -0.633600   -1.118200
O      0.064900   -0.086300   -2.195500
C      0.350800   -2.156200   -0.999700
C     -0.931600   -2.805600   -1.542000
C      1.588100   -2.626000   -1.781200
H      0.108100    1.863100   -0.893600
H     -0.592000    1.825800    0.743700
H      1.171900    1.935300    0.533000
H      0.471100   -0.463600    0.907000
H      0.471400   -2.434400    0.055700
H     -0.849300   -3.896800   -1.523100
H     -1.807400   -2.520000   -0.950400
H     -1.101100   -2.483700   -2.572900
H      2.509700   -2.209200   -1.362400
H      1.667000   -3.717300   -1.758200
H      1.513100   -2.301800   -2.822600
