13
gdb_15209
N      0.196600    1.408500    0.002500
C      0.024000   -0.001400    0.032100
C     -0.486500   -0.672000    1.283000
C     -0.895600    0.133000    2.399500
N     -1.208300    0.798100    3.292300
C     -1.345800   -0.706900    0.004100
C     -2.528600    0.093200   -0.093500
N     -3.465800    0.762100   -0.205700
H      0.032200    1.783400   -0.925700
H     -0.417400    1.889900    0.651300
H      0.805300   -0.546200   -0.490000
H     -0.035700   -1.618200    1.561400
H     -1.406700   -1.674300   -0.483000
