15
gdb_20564
C     -0.145000    1.571300   -0.026100
C      0.049700    0.052700    0.052400
O     -1.187600   -0.630900    0.214300
C      0.801300   -0.479200   -1.134400
C      1.992700   -1.112000   -1.303300
C      2.052200   -1.339800   -2.704700
N      0.992800   -0.889900   -3.328800
O      0.194100   -0.334500   -2.328700
H      0.818100    2.090700   -0.048500
H     -0.696100    1.841900   -0.932300
H     -0.711200    1.909700    0.845100
H      0.632000   -0.195000    0.945300
H     -1.694200   -0.511600   -0.597400
H      2.712200   -1.381100   -0.548500
H      2.831400   -1.820500   -3.279600
