18
gdb_14833
C     -0.314200    1.379400   -0.201900
N      0.159400    0.014900    0.032600
C      0.794100   -0.570200   -1.132600
C      1.130600   -2.072100   -1.012500
O      0.197200   -2.386000   -2.088800
C     -0.166800   -1.053400   -2.209100
N     -1.003000   -0.500100   -2.955200
C     -1.788900   -1.315000   -3.872500
H      0.482500    2.081000   -0.506200
H     -1.064600    1.362300   -0.995800
H     -0.780000    1.760200    0.711200
H      0.826400    0.016300    0.798600
H      1.616900    0.034400   -1.552400
H      2.147500   -2.373100   -1.275200
H      0.813800   -2.529900   -0.072300
H     -2.853200   -1.147300   -3.675500
H     -1.597800   -0.983300   -4.899000
H     -1.583000   -2.389500   -3.806100
