22
gdb_7966
C     -0.720200    1.296100   -0.022700
C      0.183800    0.065000    0.011700
C      1.209100   -0.019300   -1.145600
C      2.404100   -0.720100   -0.531700
C      3.507900   -1.228900   -1.406000
C      2.317300   -0.746500    0.805900
C      3.300200   -1.292100    1.794800
C      1.051200   -0.067400    1.287500
H     -0.128900    2.217700    0.033900
H     -1.308200    1.335100   -0.946200
H     -1.422700    1.300200    0.818000
H     -0.447100   -0.830800   -0.047000
H      0.810100   -0.546400   -2.021800
H      1.494600    0.983800   -1.501600
H      3.944300   -0.415700   -2.001500
H      4.316200   -1.696200   -0.838300
H      3.131500   -1.967800   -2.125700
H      4.176000   -1.739400    1.318300
H      3.654600   -0.503900    2.472700
H      2.835800   -2.057300    2.430700
H      1.285800    0.920100    1.716600
H      0.543700   -0.627600    2.083300
