16
gdb_12763
C      0.059700    1.448700   -0.312400
C      0.055600   -0.020200   -0.015800
C     -0.935300   -0.715200    0.908600
C      0.532800   -0.852200    1.155300
O      1.092300   -1.868400    0.311300
C      0.774200   -1.089000   -0.864200
C     -0.053400   -1.818500   -1.899000
O     -0.152400   -1.443800   -3.039600
H      1.063200    1.800400   -0.575200
H     -0.607600    1.683600   -1.149400
H     -0.283100    2.022200    0.554500
H     -1.455000   -0.029800    1.572100
H     -1.517300   -1.579200    0.603800
H      1.059400   -0.607900    2.070400
H      1.682300   -0.692800   -1.334300
H     -0.590400   -2.715200   -1.519100
