17
gdb_18135
C     -0.081000    1.534000   -0.118600
C      0.069800    0.035500    0.040300
C      1.321200   -0.762300   -0.202600
C      2.571000   -0.025000    0.295100
C      1.965500   -0.024600    1.746600
C      1.852200    1.234100    2.475200
N      1.771900    2.231800    3.054700
C      0.692100   -0.698300    1.199200
H      0.793700    2.092800    0.218800
H     -0.252900    1.786800   -1.170600
H     -0.936900    1.898900    0.458100
H     -0.806100   -0.509800   -0.309000
H      1.345300   -1.600200   -0.888400
H      3.482200   -0.622600    0.247000
H      2.769800    0.954300   -0.146200
H      2.521800   -0.724400    2.375600
H      0.153600   -1.461200    1.748100
