16
gdb_6726
N     -0.066700    0.800900   -0.676900
C     -0.602600   -0.401000   -0.459300
N     -0.956000   -0.660100    0.792100
H     -0.787600    0.004700    1.546600
C     -1.521200   -1.945900    1.220300
C     -2.453500   -2.609800    0.193000
C     -1.784800   -3.450500   -0.909900
O     -0.904800   -2.826400   -1.681400
O     -2.072600   -4.614100   -1.060100
H      0.214200    1.052000   -1.608200
H      0.085000    1.505300    0.040800
H     -0.790700   -1.855700   -1.382900
H     -0.714400   -2.635200    1.501200
H     -2.096000   -1.743900    2.129600
H     -3.113800   -3.297800    0.724100
H     -3.076300   -1.835500   -0.270300
