20
gdb_12813
C     -0.039300    1.530000    0.011800
C     -0.006300    0.017100    0.027700
C     -0.858900   -0.725600    1.021800
C      0.646300   -0.703700    1.193300
C      1.446300   -1.982500    0.952100
C      1.635600   -2.259300   -0.543800
O      0.449600   -2.005600   -1.280400
C      0.173900   -0.618600   -1.342200
H      0.887300    1.946600   -0.401100
H     -0.871300    1.904000   -0.597900
H     -0.164300    1.933000    1.021600
H     -1.467000   -0.148600    1.710900
H     -1.299300   -1.664400    0.700800
H      1.018600   -0.069000    1.992300
H      2.432800   -1.905500    1.423100
H      0.939900   -2.833100    1.423000
H      2.453800   -1.636600   -0.943400
H      1.893900   -3.307100   -0.722700
H     -0.738100   -0.514100   -1.941200
H      0.989200   -0.100500   -1.879300
