15
gdb_8126
C     -0.015600    1.501300   -0.047600
C      0.071700    0.007600    0.051000
C     -0.801600   -0.831300    0.952700
C      0.707500   -0.786500    1.159000
N      1.490400   -1.752900    0.456700
C      1.256800   -1.707300   -0.905400
O      1.643000   -2.463000   -1.750400
O      0.470800   -0.608500   -1.166300
H      0.936900    1.923400   -0.381200
H     -0.790900    1.794500   -0.762200
H     -0.267700    1.932100    0.925200
H     -1.411800   -0.293700    1.670500
H     -1.239400   -1.741500    0.557100
H      1.147500   -0.331600    2.039100
H      1.773100   -2.634000    0.854000
