17
gdb_17547
C     -0.637100    1.261300    0.007300
O      0.787900    1.116900   -0.008600
C     -0.004200   -0.064200   -0.000200
C      0.056500   -0.985400    1.217800
C     -0.442200   -2.311600    0.674700
C     -1.698300   -2.302100   -0.118700
N     -0.399800   -2.315600   -0.809500
C      0.046800   -0.979300   -1.229600
H     -1.054800    1.659000    0.932200
H     -1.075600    1.658900   -0.907800
H      1.097300   -1.075500    1.549400
H     -0.530000   -0.611600    2.061800
H     -0.120300   -3.226600    1.162900
H     -2.277300   -3.214200   -0.228800
H     -2.289700   -1.388400   -0.135500
H     -0.558700   -0.611600   -2.063600
H      1.084400   -1.055400   -1.574800
