19
gdb_8149
C      0.249500    1.425100   -0.243500
C     -0.128900    0.010200    0.113000
C     -1.607600   -0.358600    0.198500
C     -1.663100   -1.708800    0.937700
O     -1.645600   -2.736600   -0.060400
C     -0.391000   -1.730600    1.820400
C      0.604700   -0.843600    1.093200
N      0.779900   -1.051100   -0.353500
H      1.335800    1.543400   -0.232700
H     -0.103700    1.683100   -1.248800
H     -0.189100    2.143000    0.459200
H     -2.145500    0.407300    0.770000
H     -2.092300   -0.440200   -0.780000
H     -2.575300   -1.803700    1.540700
H     -1.589000   -3.586300    0.389100
H     -0.608800   -1.311300    2.810900
H     -0.031600   -2.755400    1.978400
H      1.488000   -0.497700    1.624100
H      0.250600   -1.865600   -0.659500
