15
gdb_19629
C     -0.066800    1.497700   -0.035000
O      1.110200    0.664900    0.026600
C     -0.156000    0.040500   -0.000200
C     -0.554400   -0.971400    1.032800
C     -1.702200   -1.747200    0.463700
C     -2.036600   -1.205800   -0.918400
C     -0.511000   -1.019300   -1.035600
N     -0.302200   -2.115400    0.074500
H     -0.271000    2.078100    0.863600
H     -0.207600    2.031200   -0.974200
H     -0.256400   -1.025000    2.072900
H     -2.299600   -2.405700    1.084800
H     -2.395400   -2.007100   -1.569300
H     -2.678400   -0.324700   -1.020600
H      0.028400   -1.087500   -1.977400
