16
gdb_14065
O      0.085100    1.386000    0.010400
C      0.057900   -0.008000   -0.008200
C     -0.461900   -0.722600    1.222200
O     -0.955200    0.104100    2.248300
C     -1.272400   -0.713400   -0.036500
C     -2.633800   -0.070100   -0.261600
O     -3.039700   -1.184200   -1.093300
C     -1.783400   -1.865300   -0.892400
H     -0.352300    1.650600    0.831900
H      0.894900   -0.427200   -0.560300
H     -0.007600   -1.657100    1.549600
H     -0.233800    0.273000    2.865200
H     -3.266100    0.032600    0.628100
H     -2.616400    0.877400   -0.813700
H     -1.249100   -2.035600   -1.836600
H     -1.913000   -2.824800   -0.372900
