20
gdb_9916
C      0.222200    1.489300    0.010500
C     -0.024900   -0.006400   -0.087400
O      0.789200   -0.533100   -1.116800
C      0.621900   -1.925400   -1.322600
C      1.406500   -2.284600   -2.556900
O      0.998000   -1.566400   -3.687600
C      2.865100   -2.658100   -2.441700
C      1.820500   -3.697600   -2.808000
H      1.273500    1.691100    0.234400
H     -0.028200    1.982900   -0.933100
H     -0.392200    1.926100    0.803300
H      0.211300   -0.500600    0.869900
H     -1.087100   -0.212200   -0.301800
H      0.973800   -2.498000   -0.449700
H     -0.445000   -2.157700   -1.475500
H      1.005600   -0.638800   -3.419600
H      3.515700   -2.310500   -3.235500
H      3.320200   -2.703000   -1.458100
H      1.560900   -4.457400   -2.078400
H      1.784700   -4.027000   -3.840000
