13
gdb_1450
C      0.091400    1.456600   -0.141200
N     -0.060700    0.012700   -0.084400
C     -1.302000   -0.538500    0.135700
O     -2.295300    0.096500    0.390000
N     -1.261700   -1.954500    0.078400
C     -2.344700   -2.821000    0.052700
O     -3.505500   -2.526900   -0.016800
H      1.082700    1.739500    0.222800
H     -0.042600    1.852900   -1.155600
H     -0.670600    1.899100    0.500400
H      0.626500   -0.540000   -0.571400
H     -0.355500   -2.396100    0.125200
H     -1.983400   -3.870300    0.091900
