12
gdb_572
C      0.028200   -1.149500    0.234700
C     -0.002200    0.036500    0.045500
C     -0.012100    1.474800   -0.198900
C      1.382800    2.077400   -0.228700
C      1.616800    3.476300    0.145600
O      1.964900    2.406500    1.028000
H      0.048200   -2.196200    0.411600
H     -0.506300    1.681300   -1.158000
H     -0.595800    1.985200    0.576400
H      2.070200    1.605800   -0.931400
H      2.453900    4.021700   -0.287100
H      0.778600    4.092900    0.468500
