14
gdb_8743
N      0.366000    1.560700   -0.074000
C      0.146800    0.103900   -0.051300
C      0.770100   -0.522600   -1.211900
C      1.267300   -1.036300   -2.176700
C      0.805800   -0.418100    1.268300
O      2.118800    0.044500    1.381600
C     -0.031300    0.020200    2.414300
N     -0.698400    0.390400    3.282500
H      0.313900    1.913100   -1.022100
H     -0.346400    2.029500    0.477600
H     -0.918200   -0.172000   -0.032000
H      1.710600   -1.496300   -3.025700
H      0.825200   -1.511900    1.257400
H      2.088300    0.953200    1.034300
