16
gdb_20002
O     -0.303900    0.262500   -0.479400
C     -0.090200    1.335800    0.032100
C      1.252700    1.964200    0.084500
C      1.358200    3.485200    0.026800
C      1.698600    2.786200    1.297200
C      0.838900    2.935200    2.515300
C      0.526200    4.257600    3.077400
O     -0.453700    3.517200    2.344100
H     -0.906600    1.930000    0.493600
H      2.021600    1.386800   -0.417500
H      2.150300    3.905800   -0.581000
H      0.420500    4.030800    0.010600
H      2.753000    2.670000    1.534900
H      0.852200    2.087000    3.201400
H      0.327800    4.361600    4.142500
H      0.902400    5.148600    2.577800
