18
gdb_15944
C     -0.123900    1.368200   -0.020400
O     -0.083800   -0.046000   -0.056000
C      0.672600   -0.550800   -1.106600
C      0.110600   -0.447300   -2.556800
C      0.321900   -1.986700   -2.734200
C      0.886300   -2.074100   -1.297000
O      2.319700   -1.911900   -1.254400
C      2.214500   -0.491100   -1.001100
H      0.877900    1.801900    0.116100
H     -0.562400    1.788100   -0.937100
H     -0.747300    1.650300    0.830600
H     -0.944100   -0.162300   -2.558500
H      0.655300    0.205100   -3.243900
H     -0.609800   -2.539000   -2.879100
H      1.040600   -2.290500   -3.497300
H      0.525500   -2.849300   -0.617400
H      2.754500    0.106600   -1.745800
H      2.568000   -0.235500    0.006200
