18
gdb_8539
C     -0.646300    1.430100   -0.427000
N     -0.428300    0.021300   -0.121100
C     -1.235500   -0.586800    0.976000
C     -0.127800   -1.648900    1.245800
N     -0.030000   -1.427500    2.718100
C     -0.333900   -0.055500    2.178600
C     -0.468400    1.108400    3.119700
C      0.588900   -0.314200    0.917500
H      0.181800    1.791700   -1.046000
H     -1.564800    1.527800   -1.015600
H     -0.731500    2.094500    0.446700
H     -2.319900   -0.718300    0.927100
H      0.010400   -2.611900    0.756500
H     -0.857900   -1.808600    3.185700
H      0.430300    1.187800    3.740200
H     -0.610700    2.054200    2.593000
H     -1.324900    0.963200    3.788600
H      1.658300   -0.129800    0.806100
