18
gdb_14505
C     -0.022200    1.631600   -0.232200
C      0.021900    0.105800   -0.087500
C     -1.368600   -0.390900   -0.423100
O     -2.108500   -0.980000    0.324200
C      1.227700   -0.706900   -0.713200
C      2.112000   -0.169100    0.450600
C      0.761100   -0.579500    1.110200
C      0.850200   -1.875300    0.243900
H      0.960000    2.098700   -0.154500
H     -0.439800    1.911800   -1.206400
H     -0.666400    2.071700    0.536900
H     -1.702000   -0.122200   -1.455300
H      1.489800   -0.769500   -1.771000
H      2.970700   -0.793900    0.708300
H      2.391900    0.883800    0.450100
H      0.487100   -0.510500    2.162900
H     -0.074800   -2.418400    0.056300
H      1.666000   -2.556400    0.496500
