19
gdb_6523
C     -0.069600    1.466300   -0.077400
C      0.012100   -0.045000    0.050800
C     -1.170300   -0.753800   -0.584300
N      1.353300   -0.608900   -0.091500
C      0.743200   -0.646600    1.250100
C      1.368100    0.194600    2.347200
C      0.290300   -1.986600    1.726800
O      0.233700   -2.981400    1.039600
H      0.859500    1.954200    0.216600
H     -0.262200    1.730700   -1.123100
H     -0.891400    1.869900    0.523600
H     -1.180500   -0.541800   -1.659700
H     -1.131700   -1.834700   -0.451500
H     -2.114200   -0.381700   -0.170900
H      1.290400   -1.553500   -0.476200
H      1.679000    1.171700    1.980700
H      0.662700    0.346100    3.172000
H      2.256500   -0.302700    2.751800
H      0.019100   -2.026000    2.804500
