21
gdb_10170
C      0.221700    1.407000    0.096400
C      0.029300   -0.097800    0.044500
O      0.773600   -0.663700    1.129500
C      0.740000   -2.013200    1.267200
C      1.625900   -2.410100    2.428800
C      3.119500   -2.316500    2.073700
N      0.052000   -2.717000    0.470600
C     -0.003000   -4.157800    0.558100
H      1.278400    1.670600   -0.007000
H     -0.333200    1.882800   -0.717900
H     -0.141000    1.814600    1.044500
H     -1.024600   -0.379300    0.143300
H      0.384600   -0.524700   -0.899900
H      1.405500   -1.729700    3.257500
H      1.379900   -3.419400    2.764300
H      3.377000   -3.008900    1.266100
H      3.372500   -1.305000    1.746000
H      3.739200   -2.562600    2.940800
H      0.329700   -4.590300   -0.393400
H      0.597200   -4.613500    1.358000
H     -1.043900   -4.474600    0.696300
