18
gdb_13671
O     -0.063400    1.455700    0.152200
C     -0.018400    0.060800    0.058800
C     -0.624800   -0.779500    1.155500
C     -1.319300   -0.645800   -0.189800
C     -2.614500    0.128000   -0.305600
C     -3.832300   -0.709200    0.141800
C     -5.093000    0.013200    0.025600
C     -6.118600    0.631600   -0.079400
H      0.553000    1.726800    0.840000
H      0.865100   -0.330100   -0.446200
H     -0.155100   -1.719300    1.425000
H     -1.066900   -0.236400    1.985400
H     -1.254100   -1.515100   -0.840300
H     -2.555100    1.039900    0.293600
H     -2.765100    0.450000   -1.342400
H     -3.883900   -1.629900   -0.454700
H     -3.687000   -1.031800    1.180800
H     -7.029900    1.168600   -0.168700
