16
gdb_6063
C     -0.050400    1.476700    0.039400
C     -0.014000   -0.028400   -0.012100
N      1.239100   -0.578300   -0.089800
H      1.344100   -1.554100   -0.311200
H      2.019500    0.011500   -0.323000
N     -1.106000   -0.694400    0.052100
C     -1.074500   -2.142500    0.011800
C     -2.503600   -2.701000    0.110300
O     -3.435900   -1.750300    0.221600
O     -2.746800   -3.877700    0.089100
H      0.550400    1.850300    0.875500
H      0.358700    1.907100   -0.881600
H     -1.079700    1.810600    0.160200
H     -2.931300   -0.904400    0.207100
H     -0.641000   -2.539500   -0.919600
H     -0.497800   -2.580600    0.840100
