18
gdb_5859
C     -0.017800    1.543900    0.008100
C     -0.000100   -0.002700    0.005600
C      0.752200   -0.518100    1.254900
C     -1.450100   -0.541100    0.011000
C      0.685200   -0.475200   -1.199300
C      1.252100   -0.865700   -2.195700
C      1.889400   -1.304400   -3.315500
C      2.454900   -1.693700   -4.309100
H      0.998600    1.947000    0.001800
H     -0.543800    1.930700   -0.869000
H     -0.528500    1.908100    0.905800
H      0.247600   -0.169600    2.162300
H      0.778700   -1.611000    1.272700
H      1.782300   -0.151600    1.270400
H     -2.001300   -0.190500   -0.865900
H     -1.461500   -1.634400    0.006500
H     -1.971900   -0.193700    0.909000
H      2.951900   -2.035800   -5.182400
