17
gdb_15883
C     -0.312300    1.513600   -0.139000
C      0.079500    0.056500   -0.031800
O      1.370800   -0.213200   -0.703800
C      1.918800   -0.683000    0.461100
N      3.087900   -1.048600    0.748100
C      0.670200   -0.511400    1.290100
C      0.896400    0.349000    2.537400
O      1.755500   -0.325800    3.429900
H      0.466400    2.171500    0.254000
H     -0.488400    1.778700   -1.185500
H     -1.237500    1.695700    0.417700
H     -0.686200   -0.588100   -0.472900
H      3.721800   -0.986600   -0.049600
H      0.225500   -1.463400    1.590400
H      1.301000    1.332400    2.252400
H     -0.046600    0.521400    3.067100
H      2.543300   -0.580100    2.925800
