16
gdb_10136
C     -0.000900    1.577900    0.037200
C     -0.001100    0.047400   -0.005400
C     -1.419500   -0.528400   -0.002400
C     -1.440700   -2.084400   -0.031900
C     -2.810500   -2.597400    0.108600
N     -3.895100   -2.967600    0.247100
C     -0.813900   -2.615300   -1.251700
N     -0.296700   -3.004900   -2.207600
H      1.020800    1.967500    0.035700
H     -0.519500    1.997800   -0.831000
H     -0.500400    1.951900    0.937300
H      0.531100   -0.298300   -0.899000
H      0.551900   -0.346500    0.857500
H     -1.958000   -0.216700    0.898600
H     -1.988900   -0.158200   -0.860900
H     -0.860100   -2.457900    0.822300
