10
gdb_23624
F      0.097000    0.055400    0.001800
C     -0.055800    1.353800    0.011200
C     -1.227700    1.996100    0.030800
C     -1.228700    3.461300    0.039200
O     -2.226400    4.139500    0.055900
N      0.070500    4.070300    0.024400
C      1.098800    3.339100    0.006200
O      1.138800    1.963600   -0.001800
H     -2.160000    1.449900    0.040400
H      2.111700    3.728300   -0.005600
