16
gdb_13654
C     -0.056500    1.526700   -0.140100
C      0.024200    0.024000   -0.017400
C      1.318500   -0.701200   -0.187100
C      0.677700   -0.641200    1.201900
C      1.280000    0.143500    2.226300
C      1.780400    0.795600    3.116000
C      2.389800    1.595900    4.138800
O      2.430200    1.306300    5.314600
H      0.843000    2.006000    0.255400
H     -0.163400    1.819800   -1.189800
H     -0.915400    1.923500    0.410600
H     -0.859400   -0.507200   -0.360500
H      1.330400   -1.669100   -0.675100
H      2.215700   -0.109100   -0.328800
H      0.208200   -1.557600    1.546300
H      2.841300    2.537900    3.763100
