14
gdb_21964
O      0.075900    1.422400    0.163300
C      0.047300    0.012200    0.219600
C     -1.359700   -0.517700   -0.104200
N     -1.428100   -1.966500   -0.016800
C     -1.876800   -2.776300    0.959400
N     -1.678300   -4.027700    0.608200
N     -1.087700   -3.971600   -0.614800
N     -0.929800   -2.748900   -0.999800
H      0.115100    1.690400   -0.760200
H      0.776200   -0.455000   -0.455500
H      0.315700   -0.268700    1.243300
H     -2.087000   -0.094600    0.592400
H     -1.649600   -0.232100   -1.119100
H     -2.331900   -2.429000    1.872700
