13
gdb_11188
O      0.044400   -0.002500   -0.108600
C      0.001600    1.200200   -0.039300
N     -1.096300    2.020200   -0.251600
C     -0.830600    3.384500    0.161000
C      0.719100    3.438000    0.030900
N      1.068000    2.050600    0.287100
C      1.152200    3.909400   -1.300300
N      1.520000    4.282800   -2.330000
H     -2.009800    1.608800   -0.148800
H     -1.319200    4.119100   -0.481900
H     -1.111700    3.578500    1.205000
H      1.150000    4.109100    0.779600
H      1.994800    1.714400    0.073100
