14
gdb_18143
O      0.135100    1.343800    0.068100
C     -0.013800   -0.030300    0.004900
C     -0.460000   -0.836600    1.174900
N     -1.384000    0.038200    1.939700
C     -2.385900   -0.059800    0.826000
C     -2.979000    1.212700    0.400400
N     -3.485400    2.198900    0.074800
C     -1.351400   -0.748100   -0.076000
H     -0.230700    1.620500    0.922000
H      0.745400   -0.494200   -0.618300
H      0.067200   -1.659600    1.642200
H     -1.730900   -0.389300    2.790000
H     -3.199600   -0.750000    1.070700
H     -1.598700   -1.470000   -0.843000
