20
gdb_11984
C     -0.106700    1.581500   -0.064700
C      0.004900    0.059600   -0.043200
C     -1.353500   -0.585600    0.235400
C      0.710900   -0.617900   -1.234700
C      2.152200   -0.216500   -1.338900
C      1.762100   -1.237100   -0.306300
C      1.128900   -0.555500    0.896600
O      2.010000    0.323100    1.566800
H      0.860900    2.063800   -0.218400
H     -0.781500    1.907600   -0.864200
H     -0.516100    1.957700    0.881300
H     -2.083600   -0.315700   -0.536400
H     -1.278400   -1.678400    0.252700
H     -1.755100   -0.259100    1.202000
H      0.188400   -1.094500   -2.056800
H      2.681000   -0.619100   -2.197100
H      2.490600    0.766700   -1.030200
H      2.173100   -2.239000   -0.307500
H      0.689400   -1.276500    1.599500
H      1.530500    0.733000    2.293800
