17
gdb_12593
C     -0.086300    1.564600   -0.008300
C      0.035300    0.034700    0.042400
C      0.844600   -0.497800   -1.159100
O      0.671500   -0.268200   -2.334900
N      1.836100   -1.288300   -0.615500
C      1.780400   -1.282600    0.790500
C      0.764100   -0.539200    1.243000
C      0.364500   -0.309200    2.662600
H      0.892300    2.038500    0.116600
H     -0.491700    1.867100   -0.977300
H     -0.748000    1.934100    0.780100
H     -0.973400   -0.396600   -0.034900
H      2.546900   -1.730600   -1.173800
H      2.507900   -1.852300    1.352300
H      1.035600   -0.830600    3.351800
H      0.381200    0.756500    2.923600
H     -0.656400   -0.662800    2.858700
