22
gdb_6159
C     -0.811300    1.654500    0.002800
O     -0.388700    0.437600    0.573300
C     -1.115200   -0.671600    0.111400
C     -0.812500   -1.217100   -1.314100
C     -0.771400   -2.661200   -0.713100
C     -2.101900   -3.398300   -0.894100
C      0.396700   -3.537500   -1.154600
C     -0.643600   -2.011600    0.703800
H     -0.200200    2.449300    0.437600
H     -0.680500    1.666200   -1.090000
H     -1.871200    1.860800    0.222700
H     -2.193100   -0.501900    0.258800
H     -1.538700   -1.025500   -2.108700
H      0.178000   -0.886700   -1.641800
H     -2.257200   -3.673200   -1.943900
H     -2.122000   -4.319900   -0.300800
H     -2.954300   -2.785500   -0.582600
H      1.352800   -3.019400   -1.027800
H      0.437900   -4.464400   -0.569800
H      0.304300   -3.817100   -2.211000
H      0.399800   -1.927800    1.020400
H     -1.231500   -2.444000    1.517500
