11
gdb_21914
O      0.116800    1.322200    0.155200
C      0.078400   -0.011200    0.067500
N      0.076300   -0.639000   -1.081600
O      0.030800   -2.004000   -0.741100
C      0.008000   -2.124800    0.579800
C      0.035700   -0.900900    1.188600
C      0.024100   -0.598300    2.619700
O     -0.013700   -1.442900    3.486400
H      0.140600    1.683700   -0.741800
H     -0.027600   -3.127700    0.976900
H      0.052700    0.483300    2.863400
