14
gdb_16940
O     -0.024800    0.007700   -0.000500
C      0.009700    1.200100   -0.011600
O     -1.095200    2.010300    0.016200
C     -0.559600    3.356900    0.061200
C     -0.040000    3.599400    1.491000
C      1.260600    2.740700    1.453800
C      1.184800    2.184700    0.004700
O      0.609300    3.283900   -0.720200
H     -1.287100    4.045800   -0.361200
H      0.171100    4.659200    1.646400
H     -0.762000    3.269300    2.239200
H      2.155000    3.355700    1.565700
H      1.284600    1.948500    2.204200
H      2.101500    1.829900   -0.456500
