19
gdb_10886
C      0.023100    1.517200   -0.045400
N      0.036000    0.054100    0.014100
C     -1.113500   -0.704100    0.640700
C     -0.147800   -1.917800    0.666700
C      0.645100   -0.687200    1.203900
C      2.095400   -0.577100    1.573400
C     -0.604900   -0.400900    2.090100
O     -0.696300    0.871700    2.676700
H      1.037700    1.853500   -0.288300
H     -0.617200    1.808300   -0.886600
H     -0.313100    2.039600    0.853700
H     -2.126900   -0.657900    0.237500
H     -0.361000   -2.727600    1.367200
H      0.167100   -2.262300   -0.316400
H      2.729500   -0.800800    0.709900
H      2.331900    0.432300    1.925200
H      2.342600   -1.279700    2.375900
H     -0.836400   -1.180700    2.832200
H     -1.554800    0.944200    3.105200
