20
gdb_18641
C     -0.038500    1.795700   -0.221200
C      0.128800    0.293800   -0.130700
C      1.430400   -0.421400   -0.394700
O      2.623200    0.321700   -0.353100
C      2.843700    0.825000    0.965900
C      1.835900    0.139900    1.924200
C      1.274400    1.078200    2.996800
C      0.825100   -0.497700    0.976900
H      0.885400    2.336200   -0.011600
H     -0.347000    2.074100   -1.235000
H     -0.809200    2.156900    0.468200
H     -0.734300   -0.248500   -0.513800
H      1.493500   -1.252000   -1.089900
H      3.886000    0.622600    1.238800
H      2.708200    1.914900    0.976400
H      2.346300   -0.688500    2.431700
H      0.746700    1.925500    2.549400
H      0.571100    0.551300    3.649300
H      2.075700    1.476900    3.628900
H      0.330000   -1.398200    1.324100
