13
gdb_20457
C      0.993100    1.102400    0.077000
N      0.363400    0.128000   -0.816500
C     -0.380600    0.593100    0.366600
C     -0.623300   -0.424700    1.404800
N     -1.528200   -0.282000    2.337300
O     -1.454700   -1.411500    3.105500
N     -0.496500   -2.267300    2.641500
C      0.022100   -1.681300    1.600200
H      1.836100    0.724100    0.647900
H      1.083800    2.137600   -0.240500
H      0.008600    0.579200   -1.654800
H     -1.198600    1.294700    0.232700
H      0.802400   -2.143100    1.017400
