16
gdb_14071
C     -0.092200    1.480000   -0.058800
C      0.072800   -0.022800   -0.059100
C      1.445900   -0.648700   -0.121200
C      0.659100   -0.695100    1.158000
O      1.034000    0.007200    2.349300
C      0.542200   -1.053000    3.205700
C      0.144200   -1.854100    1.951900
O     -0.352400   -2.915000    1.715800
H      0.694900    1.960200    0.528600
H     -0.051300    1.875300   -1.079000
H     -1.053600    1.768400    0.377800
H     -0.725200   -0.585800   -0.537400
H      1.586200   -1.580000   -0.659800
H      2.301100    0.019900   -0.115700
H      1.332200   -1.499000    3.820100
H     -0.290900   -0.731500    3.841000
