20
gdb_6178
C     -0.352900    1.407100    0.171200
C      0.171900    0.027500   -0.224400
O      0.971600    0.071900   -1.403600
C      0.961700   -0.599800    0.909400
O      0.237500   -1.009500    2.073600
C      0.932900   -2.018300    1.308200
C      0.053200   -3.036800    0.617300
C      2.145600   -2.597200    2.007100
H      0.476500    2.079800    0.425700
H     -0.915800    1.851900   -0.653900
H     -1.002400    1.331200    1.047900
H     -0.675000   -0.614500   -0.480900
H      1.654200    0.739100   -1.270600
H      1.881700   -0.047300    1.134700
H     -0.858900   -2.587700    0.222900
H      0.592200   -3.514800   -0.207500
H     -0.238500   -3.819900    1.325600
H      1.838600   -3.327000    2.764400
H      2.797300   -3.110500    1.291900
H      2.721400   -1.812300    2.503400
