20
gdb_7829
C     -0.015800    1.542600    0.006200
C      0.020300    0.012200    0.013000
C      0.725500   -0.534800   -1.234200
O      0.784500   -1.952100   -1.243600
C      1.496900   -2.460900   -0.132600
C      0.834800   -2.064800    1.195200
O      1.610700   -2.494000    2.305400
C      0.710400   -0.545800    1.268600
H      0.997400    1.961300    0.010500
H     -0.532400    1.926700   -0.880000
H     -0.536100    1.927000    0.889200
H     -1.011400   -0.365000   -0.010800
H      0.190000   -0.248500   -2.144700
H      1.745400   -0.113500   -1.294600
H      1.519900   -3.550200   -0.250800
H      2.538200   -2.095200   -0.125600
H     -0.172900   -2.510100    1.225100
H      1.618000   -3.456600    2.312900
H      1.722300   -0.125500    1.354100
H      0.169300   -0.258400    2.176700
