21
gdb_12089
C     -1.712100    0.799300    1.264200
C     -0.848300   -0.396100    0.924300
C      0.202300   -0.334100   -0.135700
N      0.571800   -0.504500    1.260500
C      1.305300    0.498900    2.009500
C      1.609200    1.851000    1.387800
C      1.097000    0.416400    3.502000
C      2.382000   -0.093900    2.893700
H     -1.266400    1.745800    0.951700
H     -2.681500    0.707800    0.762300
H     -1.903100    0.854900    2.341400
H     -1.367800   -1.345900    1.054600
H      0.400500   -1.180100   -0.790900
H      0.356200    0.636400   -0.604700
H      0.710100    2.432200    1.162300
H      2.216800    2.446200    2.075600
H      2.180800    1.738900    0.459800
H      1.121400    1.337200    4.075100
H      0.388400   -0.321000    3.861300
H      2.513500   -1.167400    2.835900
H      3.291100    0.476300    3.053500
