17
gdb_16446
C     -0.014800    1.563800    0.078700
C      0.106500    0.073600    0.008700
N     -0.825900   -0.830800    0.709900
C      0.630600   -0.938200    0.984200
C      1.255200   -1.759600   -0.171500
O      0.471300   -2.831100   -0.720000
C     -0.118000   -1.946900   -1.711100
C      0.691000   -0.739700   -1.181900
H      0.902200    2.052500   -0.267900
H     -0.840700    1.924300   -0.546500
H     -0.203800    1.894200    1.106200
H     -1.229200   -0.306300    1.486100
H      1.004600   -0.819000    1.995000
H      2.316000   -2.000300   -0.063300
H      0.154700   -2.261200   -2.725600
H     -1.204200   -1.884400   -1.607900
H      1.326500   -0.187000   -1.872000
