15
gdb_2851
O     -0.115900    1.415300   -0.443200
C      0.032300    0.102300    0.077200
C     -1.338200   -0.529000    0.071800
C     -1.855300   -1.265300   -1.114100
C     -1.551400   -2.041100    0.164400
C     -0.417200   -2.991700    0.170200
O     -0.377600   -3.998300    0.834700
H      0.727400    1.869500   -0.355200
H      0.734900   -0.487600   -0.530700
H      0.426400    0.123000    1.105400
H     -2.065000    0.048100    0.636200
H     -2.896400   -1.164100   -1.396800
H     -1.174600   -1.414500   -1.947000
H     -2.389200   -2.371500    0.768700
H      0.422400   -2.727500   -0.513800
