17
gdb_4114
C      0.725500    1.398800   -0.045300
C     -0.083100    0.112300    0.059100
C      0.373300   -1.011500   -0.932500
C      1.125300   -1.627000    0.229400
N      2.188300   -2.296800    0.389800
O      2.708800   -2.740000   -0.838300
C      0.365700   -0.817100    1.257800
O      1.041200   -0.287000    2.362400
H      1.801500    1.192400   -0.090400
H      0.459200    1.955300   -0.949300
H      0.547900    2.041100    0.821900
H     -1.153800    0.329700    0.047100
H     -0.444800   -1.638900   -1.298200
H      0.989700   -0.708500   -1.782200
H      3.501800   -3.213500   -0.564400
H     -0.500700   -1.368300    1.643700
H      1.977500   -0.245600    2.139700
