15
gdb_3085
C     -0.118000    1.555600   -0.088200
C      0.005200    0.052700   -0.022800
C      1.330800   -0.624800   -0.228400
O      2.468400    0.146700   -0.437400
C      0.692700   -0.645500    1.161300
C      1.344800    0.106400    2.187900
C      1.962000    0.728800    3.014900
H      0.812800    2.039500    0.211300
H     -0.344400    1.871600   -1.111700
H     -0.919700    1.916000    0.564000
H     -0.855600   -0.496300   -0.395800
H      1.350200   -1.569700   -0.767400
H      2.898600    0.289000    0.415800
H      0.260400   -1.587500    1.484600
H      2.464800    1.282800    3.768600
