15
gdb_19898
O     -0.469400    0.356200   -0.833600
C      0.017500    0.992200    0.066300
C      1.119000    2.002700   -0.069900
C      1.547600    2.814300   -1.250200
C      0.411400    3.628300   -1.903200
C     -0.912300    3.560600   -1.253300
N      0.133900    4.389900   -0.627900
C      1.173400    3.522800    0.038100
H     -0.286800    0.814600    1.124000
H      1.981400    1.628200    0.489400
H      2.519300    2.712900   -1.715200
H      0.571200    4.165900   -2.831700
H     -1.692500    4.173900   -1.696800
H     -1.281300    2.668100   -0.768600
H      1.789800    4.001800    0.788300
