18
gdb_12264
C      0.088200    1.470800    0.203100
C      0.020900   -0.041400   -0.037600
C     -1.404400   -0.581500    0.009900
C     -1.680300   -2.120300   -0.087800
C     -2.790600   -1.988300    1.016400
O     -2.944400   -2.942600    2.020600
C     -2.091300   -0.678200    1.379900
O     -1.873400   -0.187200    2.455600
H      1.121600    1.828100    0.166400
H     -0.480600    2.018000   -0.557100
H     -0.325800    1.723300    1.182900
H      0.462900   -0.289700   -1.010400
H      0.621700   -0.561500    0.718700
H     -2.046800   -0.041200   -0.696500
H     -2.000800   -2.510400   -1.053900
H     -0.833800   -2.701000    0.288000
H     -3.758700   -1.803700    0.532300
H     -2.498100   -2.601200    2.806000
