16
gdb_13839
N     -0.080600    1.333000    0.087700
C     -0.003400   -0.053900   -0.022300
O      1.056000   -0.656400    0.029900
N     -1.209000   -0.690900   -0.148300
C     -2.524800   -0.080900    0.034900
C     -3.422800   -1.283900    0.150600
C     -2.729900   -2.414900    0.060000
C     -1.262400   -2.154100   -0.128300
H      0.822500    1.765800   -0.035700
H     -0.828300    1.806500   -0.396900
H     -2.555700    0.556200    0.931900
H     -2.811200    0.557000   -0.818900
H     -4.492300   -1.190700    0.288800
H     -3.134800   -3.417600    0.110200
H     -0.871800   -2.585400   -1.060800
H     -0.642100   -2.558800    0.682400
