17
gdb_17639
C     -0.124600    1.574500    0.323200
C     -0.018800    0.067000    0.067000
C      0.815900   -0.605200    1.150600
C      0.261000   -1.207700    2.388400
N      0.731400   -2.071100    1.286500
H     -0.660000   -2.247100    0.263000
H      1.630400   -2.497100    1.483300
C     -1.415900   -0.545100   -0.183000
O     -1.502800   -1.878200   -0.108200
O     -2.364000    0.132900   -0.483300
H      0.868900    2.032500    0.360600
H     -0.706200    2.049400   -0.467000
H     -0.630500    1.773100    1.272800
H      0.521900   -0.088000   -0.879600
H      1.811600   -0.176000    1.243900
H      0.857300   -1.168500    3.294500
H     -0.812600   -1.234300    2.547800
