15
gdb_20980
C     -0.092900    1.428600   -0.015200
N      0.188600    0.003200   -0.029500
C      0.062800   -0.712700    1.227700
C      0.035500   -0.702500   -1.182400
N     -0.089500   -2.018200   -1.216300
O     -0.135000   -2.290400   -2.605400
C     -0.058500   -1.115600   -3.214200
N      0.043900   -0.094200   -2.428700
H      0.551000    1.915700    0.724000
H      0.112000    1.848600   -0.998800
H     -1.140300    1.641800    0.247900
H     -0.987000   -0.878400    1.512400
H      0.550400   -1.685400    1.145100
H      0.550000   -0.132300    2.016100
H     -0.086600   -1.115900   -4.294700
