15
gdb_9697
C     -0.110100    1.612100   -0.018800
C      0.018800    0.087700   -0.029500
C      0.943200   -0.447200   -1.181300
N      2.126900   -0.994600   -0.510000
C      1.910100   -0.872300    0.731100
O      0.763700   -0.305900    1.174300
C     -1.286000   -0.563900   -0.001300
C     -2.366900   -1.088000   -0.015900
H      0.885300    2.065300   -0.025800
H     -0.657300    1.946900   -0.904500
H     -0.647300    1.946400    0.871500
H      0.450300   -1.226000   -1.769100
H      1.230700    0.358900   -1.864300
H      2.583000   -1.188900    1.520700
H     -3.320300   -1.556700   -0.020200
