20
gdb_6834
C     -0.219800    1.570600   -0.017600
C     -0.006900    0.060800    0.038900
C     -1.248500   -0.694000   -0.420900
O      1.147700   -0.316600   -0.768600
C      1.854700   -0.833500    0.376400
C      0.673400   -0.529000    1.314700
C      0.952400    0.358700    2.511400
O      1.692600   -0.426000    3.438000
H      0.688400    2.114100    0.253800
H     -0.489200    1.862300   -1.037800
H     -1.030100    1.884400    0.649300
H     -1.520000   -0.396100   -1.438900
H     -1.067900   -1.772500   -0.417600
H     -2.099100   -0.482300    0.236800
H      2.121500   -1.889400    0.254700
H      2.768300   -0.262700    0.589700
H      0.167600   -1.429800    1.672000
H      1.524000    1.248500    2.206800
H      0.005200    0.709900    2.952500
H      1.934100    0.133500    4.182000
