14
gdb_17150
N      0.043400   -1.066100   -0.079500
C      0.008800    0.087800   -0.012600
C     -0.015800    1.524000    0.092000
C     -0.763100    2.414200    1.094200
C     -0.105000    3.363700    0.090600
C      1.192300    2.513000   -0.057600
C      0.998000    2.503300   -1.568400
N     -0.457000    2.427700   -1.105400
H     -1.852700    2.350900    1.060200
H     -0.379300    2.422700    2.116100
H     -0.202600    4.442700   -0.020000
H      2.095900    2.537200    0.558300
H      1.223100    3.421800   -2.117900
H      1.324000    1.623200   -2.129400
