13
gdb_4679
C      0.133000    1.440700    0.049800
C     -0.064300   -0.030200   -0.010300
C     -1.162800   -0.822400   -0.192500
C     -0.707000   -2.170100   -0.151400
C      0.642800   -2.106900    0.053800
O      1.043000   -0.800600    0.141100
C      1.626700   -3.108400    0.181900
N      2.419900   -3.947200    0.284500
H      0.820300    1.780600   -0.732300
H     -0.823500    1.949400   -0.084900
H      0.555600    1.744900    1.013400
H     -2.175200   -0.480700   -0.338400
H     -1.289200   -3.071300   -0.257900
