13
gdb_11174
O      0.044100    0.002600    0.247800
C     -0.031300    1.191100    0.190900
C     -1.286400    2.058500    0.118600
C     -0.766300    3.456400    0.497700
C      0.711900    3.373000    0.032000
O      1.070700    1.998300    0.176900
C     -1.492000    4.571500   -0.095600
N     -2.059000    5.456400   -0.575700
H     -1.667000    2.035200   -0.907800
H     -2.063800    1.671300    0.776300
H     -0.789200    3.569400    1.586900
H      0.814800    3.672300   -1.016500
H      1.385800    3.972600    0.645100
