17
gdb_6273
C      0.799600    0.800500   -0.211400
N     -0.352400   -0.056100    0.021800
C     -0.260000   -0.833800    1.246300
C     -1.622000    0.644700   -0.151300
C     -1.894800    0.548500   -1.640800
O     -1.664500    1.411700   -2.455600
C     -2.433000   -0.801500   -2.135900
O     -2.887000   -1.647800   -1.411200
H      1.709900    0.194200   -0.241300
H      0.696000    1.311800   -1.172300
H      0.922400    1.571400    0.571900
H     -0.279600   -0.210800    2.159500
H     -1.087900   -1.546400    1.292800
H      0.676000   -1.400900    1.246300
H     -2.406300    0.111500    0.390300
H     -1.600900    1.695100    0.175000
H     -2.413700   -0.890000   -3.243100
