13
gdb_20672
C     -0.035900    1.514100    0.042500
C     -0.011700    0.021500   -0.002900
C     -0.023400   -0.819200   -1.067200
O      0.008600   -2.103000   -0.668700
N      0.043200   -2.151900    0.709800
C      0.031400   -0.890700    1.105600
C      0.059000   -0.549400    2.481100
C      0.081000   -0.205400    3.633300
H      0.857000    1.909900    0.537800
H     -0.080800    1.937200   -0.963900
H     -0.902500    1.878900    0.603600
H     -0.052700   -0.658400   -2.134000
H      0.101200    0.078900    4.656500
