19
gdb_9286
C     -0.201900    1.509200   -0.131300
C      0.060800    0.009500    0.026700
C      0.755900   -0.611900   -1.186100
O      2.018900    0.005800   -1.459500
C      0.935900   -2.126400   -1.042000
N      1.647700   -2.660500   -2.186300
C      1.284500   -3.800800   -2.825600
O      0.376200   -4.533400   -2.491100
H      0.727600    2.047100   -0.336300
H     -0.886000    1.701600   -0.964600
H     -0.650500    1.928400    0.773800
H      0.680100   -0.172400    0.917800
H     -0.881700   -0.524200    0.200400
H      0.163100   -0.417800   -2.088500
H      2.539000   -0.023800   -0.647300
H      1.481400   -2.341100   -0.109400
H     -0.026400   -2.640400   -0.981500
H      2.386300   -2.086100   -2.563100
H      1.925900   -3.997600   -3.707800
