12
gdb_3455
O     -0.000500    0.015800   -0.159000
C     -0.014900    1.189100   -0.041300
C     -1.053500    2.396000    0.092000
N     -0.024100    2.930700    1.034000
C      0.993700    2.423900    0.064500
C      0.618400    3.061600   -1.260800
C     -0.731400    3.043100   -1.242700
H     -2.079000    2.292000    0.437600
H     -0.038000    3.954400    1.041100
H      2.030600    2.347900    0.382400
H      1.291400    3.320100   -2.065600
H     -1.432600    3.282900   -2.029000
