16
gdb_19257
O      0.518300    1.212900    0.120800
C      0.112000   -0.112300   -0.035900
C     -1.375300   -0.489400    0.020100
C     -2.127300   -0.000700   -1.183600
C     -1.256700   -1.216000   -1.324300
C      0.235900   -0.807300   -1.450600
C      0.534900    0.049400   -2.642300
O      0.366400    1.251200   -2.675000
H      0.316000    1.676100   -0.704700
H      0.670900   -0.702300    0.696700
H     -1.891000   -0.814000    0.915800
H     -3.192800   -0.205100   -1.167400
H     -1.863100    0.932200   -1.671800
H     -1.641700   -2.185300   -1.612900
H      0.902500   -1.673900   -1.441500
H      0.895500   -0.482900   -3.549600
