20
gdb_8911
C      0.056400    1.588100   -0.012900
C     -0.019400    0.057700    0.017300
C     -1.450300   -0.509900   -0.002900
C     -2.208100   -0.126700   -1.281500
C     -1.419700   -2.061500    0.178200
N     -0.747200   -2.589200    1.367600
C     -2.793100   -2.598800    0.168600
N     -3.879900   -2.991100    0.173300
H      1.092900    1.924100    0.087100
H     -0.333500    2.001000   -0.947200
H     -0.516000    2.028000    0.811500
H      0.540600   -0.354500   -0.834400
H      0.492500   -0.291900    0.921200
H     -1.994400   -0.102000    0.861700
H     -2.303200    0.957800   -1.373400
H     -1.681000   -0.491000   -2.171900
H     -3.216100   -0.548800   -1.290700
H     -0.907700   -2.490200   -0.694600
H      0.243300   -2.377600    1.330300
H     -1.120500   -2.154500    2.206500
