13
gdb_4802
C     -0.087600    1.359200   -0.023400
O     -0.060500   -0.069700    0.050700
C     -1.225800   -0.697200    0.050000
N     -1.382600   -1.983300    0.111500
C     -2.758900   -2.133600    0.080500
O     -3.318500   -3.354600    0.127300
C     -3.374400   -0.931500    0.001500
O     -2.352900    0.025000   -0.018700
H      0.956600    1.669900   -0.009900
H     -0.567800    1.693700   -0.947500
H     -0.617900    1.785100    0.833300
H     -2.591700   -3.987100    0.180200
H     -4.384100   -0.572800   -0.045300
