15
gdb_3243
C     -0.168700    1.629300    0.010900
C     -0.150900    0.149000    0.315400
C     -1.255400   -0.741400   -0.056500
O     -0.044100   -0.725400   -0.813900
C      1.215700    2.145300   -0.308300
C      1.657400    3.491500    0.070600
O      2.086400    2.347200    0.810700
H     -0.833800    1.812300   -0.841600
H     -0.565200    2.176600    0.874600
H      0.479000   -0.139800    1.157700
H     -1.438500   -1.649400    0.516200
H     -2.128400   -0.329600   -0.562300
H      1.698500    1.668700   -1.162300
H      2.431700    3.992900   -0.508300
H      0.968000    4.154400    0.592900
