15
gdb_3435
C     -0.026000    1.502400    0.064700
C     -0.020800    0.008700   -0.002700
C      0.003700   -0.772300   -1.089300
C     -0.007600   -2.250600   -0.756400
C      0.030100   -2.255700    0.767600
O      1.200400   -1.659600    1.330400
C      0.000900   -0.856500    1.223300
H      0.868300    1.879500    0.576400
H     -0.061500    1.948700   -0.932700
H     -0.890000    1.872300    0.631400
H      0.065100   -0.408800   -2.109800
H     -0.911300   -2.750100   -1.129900
H      0.850300   -2.783900   -1.184000
H     -0.392200   -3.080300    1.335700
H     -0.417900   -0.529100    2.171300
