15
gdb_19514
O      0.307500    0.177300   -0.550300
C      0.261100    1.341700   -0.239900
N      1.261200    2.006000    0.453200
C      2.670600    1.964100    0.149600
C      3.020300    1.669300   -1.299900
O      2.154500    2.497500   -2.073900
C      1.878300    3.680900   -1.338600
C      1.902800    3.261100    0.122000
H     -0.628800    1.981200   -0.396700
H      3.353900    1.689600    0.946300
H      4.079300    1.915200   -1.474900
H      2.830700    0.635700   -1.597000
H      2.646800    4.455500   -1.496600
H      0.918300    4.070600   -1.689400
H      1.970700    4.010300    0.904500
