14
gdb_6643
C     -0.092600    1.538900    0.011600
C      0.114800    0.036800    0.001800
O      1.203000   -0.476300   -0.011000
C     -1.186300   -0.795100    0.009600
C     -0.985200   -2.230500   -0.000300
C     -0.830700   -3.427100   -0.008500
C     -0.594900   -4.848200   -0.018700
O     -1.465900   -5.687800   -0.015400
H      0.874200    2.042400    0.005800
H     -0.676100    1.850700   -0.862000
H     -0.660700    1.841500    0.898500
H     -1.777600   -0.500600    0.888000
H     -1.794300   -0.490800   -0.854000
H      0.478300   -5.126200   -0.030100
