22
gdb_6865
C     -0.023900    1.552500    0.001300
C     -0.007400    0.020800   -0.008000
O     -1.355000   -0.472800    0.057700
C      0.691100   -0.516900   -1.274300
C      0.778400   -2.049100   -1.287000
C      1.479500   -2.574400   -0.027000
C      0.785200   -2.062200    1.242300
C      0.686800   -0.530000    1.249000
H      0.990800    1.963800    0.004300
H     -0.536200    1.941200   -0.887600
H     -0.551600    1.921300    0.885900
H     -1.819500   -0.159800   -0.726100
H      0.155100   -0.153600   -2.162200
H      1.700400   -0.087000   -1.328800
H     -0.236600   -2.461000   -1.333000
H      1.302200   -2.386100   -2.188600
H      1.499900   -3.670100   -0.033100
H      2.528200   -2.243300   -0.029500
H     -0.225800   -2.480700    1.297700
H      1.321700   -2.402200    2.135400
H      1.692300   -0.093500    1.305200
H      0.136800   -0.185400    2.131600
