17
gdb_10629
C      0.058900    1.514000   -0.349700
C     -0.016600    0.096600    0.225100
C     -1.411200   -0.515800    0.128700
C     -1.867700   -1.132100   -1.197400
C     -1.570600   -2.020300   -0.024600
O     -0.395100   -2.765000    0.010900
C     -2.425500    0.147300    0.910900
N     -3.232500    0.685500    1.542100
H      1.072700    1.913300   -0.253500
H     -0.209500    1.526700   -1.411200
H     -0.620900    2.192400    0.175100
H      0.676600   -0.570100   -0.293300
H      0.289100    0.102700    1.277400
H     -2.897200   -0.995800   -1.506300
H     -1.132400   -1.105100   -1.994600
H     -2.417700   -2.467300    0.493600
H     -0.477700   -3.486400   -0.621900
