20
gdb_16336
C      0.165100    1.533200   -0.147900
C     -0.106700    0.037900    0.072900
C      0.624100   -0.512400    1.267700
C      2.065700   -0.949000    1.221100
C      1.025500   -1.947200    1.645100
C      0.665900   -1.702200    3.113100
C      0.220500   -0.250700    2.717300
O      0.878200    0.854800    3.303800
H      1.226200    1.710500   -0.349800
H     -0.412100    1.920300   -0.993700
H     -0.099100    2.113900    0.741300
H     -1.186400   -0.122800    0.198600
H      0.183600   -0.527500   -0.821700
H      2.461200   -1.081500    0.218400
H      2.785000   -0.567200    1.940500
H      0.840100   -2.861000    1.093400
H     -0.161600   -2.311100    3.485200
H      1.500400   -1.758800    3.820200
H     -0.870600   -0.144500    2.802600
H      0.581400    0.933100    4.216200
