16
gdb_10286
C      0.632100    0.731200    0.567300
O      0.111900   -0.515400    0.138500
C     -1.275000   -0.462200   -0.155500
C     -1.647600   -1.638600   -0.932100
C     -2.005200   -2.607900   -1.545400
C     -2.129500   -0.401000    1.148800
C     -1.818700   -1.449500    2.192400
O     -2.970300    0.452900    1.279900
H      1.699700    0.582200    0.739700
H      0.494900    1.506900   -0.199900
H      0.165600    1.081400    1.499400
H     -1.520700    0.449700   -0.720500
H     -2.309300   -3.460000   -2.102300
H     -2.050800   -2.441000    1.788900
H     -0.749900   -1.449100    2.423500
H     -2.408800   -1.265400    3.090200
