10
gdb_23733
F      0.009700    0.020500    0.002700
C     -0.034200    1.345800    0.010600
C     -1.212300    1.999700    0.029800
O     -1.242500    3.347600    0.037700
C     -0.064900    4.095600    0.026400
O     -0.125700    5.292300    0.033100
C      1.152600    3.273800    0.005400
N      1.163000    1.981700   -0.001900
H     -2.189500    1.536200    0.040200
H      2.094000    3.815500   -0.004400
