20
gdb_6117
C     -0.637400    1.249700   -0.072500
C      0.102400   -0.080000   -0.075900
C      1.471800   -0.177100   -0.758200
O      1.965400    0.379800   -1.697400
C      2.007300   -1.122100    0.325100
C      0.785900   -0.693200    1.212300
C      1.192800    0.369700    2.235500
C      0.014300   -1.831300    1.873900
H     -0.026900    2.052700    0.349700
H     -0.893800    1.536700   -1.096700
H     -1.566600    1.189300    0.503400
H     -0.536000   -0.856900   -0.520800
H      1.954000   -2.168400    0.004900
H      3.013800   -0.919000    0.700000
H      1.773400    1.177500    1.777000
H      0.316900    0.819100    2.715200
H      1.812600   -0.075300    3.021600
H      0.610500   -2.310500    2.658800
H     -0.908700   -1.465500    2.338500
H     -0.260600   -2.601900    1.145600
