19
gdb_6998
C     -0.338100    1.486300   -0.050300
C      0.124300    0.046600   -0.035300
O      1.389600   -0.131000   -0.766800
C      1.999600   -0.691000    0.332000
N      3.164100   -1.131400    0.487400
C      0.782000   -0.583000    1.236700
C      0.983000    0.319800    2.453700
C      0.199100   -1.939300    1.639900
H      0.427500    2.161300    0.339400
H     -0.573100    1.793000   -1.074000
H     -1.244600    1.600200    0.553400
H     -0.634600   -0.605900   -0.480500
H      3.714900   -1.041800   -0.368400
H      1.425600    1.283000    2.188900
H      0.031400    0.505500    2.963500
H      1.658900   -0.167900    3.162000
H      0.873800   -2.450600    2.332400
H     -0.769300   -1.811200    2.136300
H      0.055500   -2.589000    0.771200
