17
gdb_2985
C      0.100100    1.438700    0.108500
C     -0.042300   -0.089600    0.003900
C     -1.511400   -0.470300   -0.015300
O     -2.064500   -1.156800    0.804000
C      0.626600   -0.631600   -1.251200
C      2.088800   -1.001500   -1.229300
C      1.038700   -2.079900   -1.331500
H      1.155700    1.722700    0.073900
H     -0.407200    1.938700   -0.724600
H     -0.329500    1.817000    1.040900
H      0.397300   -0.568700    0.885800
H     -2.072700   -0.053600   -0.887400
H      0.262900   -0.185200   -2.174200
H      2.688800   -0.779300   -2.104800
H      2.621900   -0.901800   -0.289300
H      0.864000   -2.700500   -0.458900
H      0.920400   -2.598800   -2.276000
