13
gdb_2978
N      0.254300    1.468600    0.075500
C     -0.053500    0.040900   -0.002700
C      0.477900   -0.615400   -1.217800
N      0.883500   -1.087600   -2.192000
C      0.451600   -0.624900    1.268800
C      1.049400   -1.962200    1.311100
O      1.862800   -0.783100    1.365900
H      1.263200    1.587800    0.111800
H     -0.073300    1.948600   -0.756800
H     -1.145400   -0.069000   -0.027100
H     -0.025100   -0.221700    2.161700
H      0.997800   -2.533600    2.235900
H      1.141500   -2.544400    0.397200
