15
gdb_1065
C     -0.010900    1.423300   -0.045800
N      0.031900   -0.009700    0.173900
C     -1.177800   -0.708200    0.068100
C     -2.454600   -0.179900    0.055100
N     -3.340200   -1.240500    0.004600
C     -2.652400   -2.419100   -0.028700
C     -1.308200   -2.129300    0.012700
H      1.004100    1.826800   -0.009700
H     -0.471900    1.712200   -1.006100
H     -0.587100    1.901100    0.755100
H      0.772600   -0.457000   -0.347800
H     -2.804300    0.837500    0.084600
H     -4.339500   -1.151500   -0.014400
H     -3.166500   -3.365600   -0.075400
H     -0.500700   -2.845700    0.012200
