17
gdb_5576
C      0.006700    1.479700    0.096900
N     -0.131700    0.030100    0.064500
C      0.566400   -0.702100    1.029300
C      0.699500   -2.073800    1.106800
C      0.206100   -3.179000    0.238200
N      1.442000   -2.274100    2.263800
C      1.694200   -1.060000    2.813100
N      1.184000   -0.085000    2.090400
H      1.041800    1.830800   -0.029700
H     -0.613100    1.906300   -0.696600
H     -0.348700    1.857400    1.057900
H     -0.006100   -0.344400   -0.865100
H      0.985300   -3.611500   -0.405000
H     -0.223500   -4.000800    0.824400
H     -0.588100   -2.805000   -0.414700
H      1.725500   -3.166600    2.631400
H      2.249100   -0.941100    3.731400
