16
gdb_9511
O     -0.057900    1.298400   -0.176100
C     -0.088500   -0.104900   -0.039300
C      0.271700   -0.749500    1.315900
C     -0.972000   -1.666500    1.165800
C     -1.542200   -0.710600    0.079700
O     -2.438000    0.237600    0.603700
C     -2.090600   -1.360600   -1.170600
O     -1.530000   -2.254200   -1.756000
H      0.161400    1.681400    0.678700
H      0.446200   -0.557200   -0.879000
H      1.253800   -1.217500    1.402700
H      0.144100   -0.037800    2.138600
H     -0.729100   -2.638300    0.732300
H     -1.611200   -1.791300    2.040200
H     -2.118800    1.097900    0.292100
H     -3.058600   -0.935200   -1.518300
