14
gdb_16639
O      0.161800    1.300900    0.393900
C     -0.052000   -0.059100    0.090700
C     -1.499900   -0.437200   -0.091200
C     -2.241200    0.213100   -1.244700
C     -1.564100   -1.107200   -1.439000
O     -0.286100   -1.063700   -2.062900
C      0.587600   -0.392800   -1.272900
O      1.685000   -0.065300   -1.623400
H      1.063300    1.502900    0.108200
H      0.411400   -0.711200    0.848800
H     -2.059400   -0.819100    0.752300
H     -3.323700    0.220100   -1.189900
H     -1.799200    1.086800   -1.711300
H     -2.092000   -2.026700   -1.651800
