15
gdb_4552
C     -0.096200    1.461200    0.038800
N      0.005000    0.020500   -0.018500
C      0.063500   -0.765200   -1.177300
C      0.080300   -2.050200   -0.716300
O      0.122600   -3.185200   -1.451500
N      0.059400   -2.099900    0.652200
C      0.016500   -0.835600    1.033900
N     -0.096300   -0.390700    2.353900
H      0.881000    1.948300   -0.066400
H     -0.748300    1.817600   -0.763000
H     -0.534700    1.745800    0.997700
H      0.094100   -0.335100   -2.162000
H      0.134900   -3.911000   -0.816400
H     -0.151100   -1.194700    2.967300
H      0.677000    0.195900    2.648800
