19
gdb_19687
C      0.009600    1.577200   -0.025800
C      0.120000    0.048900   -0.002700
C      0.676100   -0.537700   -1.299200
C      0.638500   -2.067700   -1.333600
C     -0.677500   -2.086700   -2.013000
C     -0.340900   -0.615700   -2.479000
C      0.486000   -1.298200   -3.578900
N      0.527300   -2.553900   -2.755600
H      0.987900    2.041800   -0.191500
H     -0.657900    1.920500   -0.823200
H     -0.382900    1.958800    0.921800
H      0.768200   -0.253200    0.830600
H     -0.863100   -0.394900    0.201300
H      1.636100   -0.062300   -1.543700
H      1.055900   -2.770800   -0.623600
H     -1.580200   -2.669100   -1.886400
H     -1.033700    0.200300   -2.678300
H     -0.078800   -1.507600   -4.491000
H      1.462800   -0.870000   -3.835700
