17
gdb_19079
C     -0.058100    1.613000    0.013800
C      0.054100    0.106300   -0.132200
C      0.621600   -0.821500   -1.151500
C      1.986600   -0.573800   -1.823300
C      2.643300    0.709600   -1.526700
O      2.050300    1.949200   -1.756000
C      2.510800   -0.311600   -0.399700
N      1.205400   -0.742400    0.241800
H      0.877200    2.058800    0.349100
H     -0.347000    2.099600   -0.918400
H     -0.817300    1.830700    0.771300
H     -0.822000   -0.383100    0.297600
H      0.059600   -1.705800   -1.440900
H      2.347000   -1.269200   -2.571600
H      3.689700    0.680600   -1.846900
H      2.502500    2.604100   -1.213000
H      3.401700   -0.684200    0.093000
