17
gdb_2479
C     -0.046200    1.457700    0.047400
C     -0.008200   -0.029900   -0.006200
C     -0.044900   -0.889400   -1.030700
C      0.033400   -2.266200   -0.353900
C     -0.971000   -2.053000    0.830500
C      0.090200   -0.965600    1.216700
C      1.157000   -1.993800    0.704600
H      0.852200    1.865800    0.528800
H     -0.119000    1.891200   -0.954400
H     -0.901200    1.817100    0.635100
H     -0.113200   -0.694900   -2.092200
H      0.021200   -3.159300   -0.978400
H     -1.977800   -1.709000    0.580900
H     -1.007000   -2.893300    1.531900
H      0.136500   -0.516400    2.209700
H      1.321900   -2.828600    1.394000
H      2.106800   -1.595600    0.339200
