16
gdb_4469
C      0.086900    1.560300    0.067000
C      0.028000    0.066300    0.055500
C     -0.050300   -0.723300   -1.045700
N     -0.091400   -0.422000   -2.406100
O     -0.087200   -2.066700   -0.653900
C     -0.026900   -2.080900    0.695600
N     -0.135100   -3.336800    1.282400
C      0.048700   -0.816700    1.196400
H      1.008300    1.923300    0.537800
H      0.048200    1.947600   -0.953700
H     -0.749600    1.990600    0.630300
H     -0.930100   -0.771900   -2.859400
H      0.709900   -0.783000   -2.915200
H      0.314200   -4.059900    0.734100
H      0.209400   -3.348700    2.232600
H      0.109600   -0.537500    2.236700
