14
gdb_20421
C     -0.171100    1.286500   -0.340900
C      1.250500    1.015200    0.011400
N      0.253300   -0.046000    0.094200
C     -0.142800   -0.505400    1.355500
C      0.600800   -0.786900    2.462600
O     -0.182800   -1.299400    3.431600
N     -1.489300   -1.361500    2.973600
C     -1.457100   -0.897900    1.749900
H     -0.750400    1.884600    0.358500
H     -0.476300    1.358400   -1.380100
H      1.997600    0.893700   -0.766600
H      1.616700    1.437400    0.944800
H      1.649600   -0.698600    2.694300
H     -2.369300   -0.851600    1.172200
