17
gdb_4821
C      0.428000    1.349100    0.155500
C      0.015000   -0.069900   -0.057200
C     -0.587000   -0.687000   -1.132500
C     -0.719400   -2.071600   -0.825800
C     -0.203600   -2.263900    0.434800
C     -0.121000   -3.466000    1.310000
O      1.120700   -3.419800    2.017100
N      0.223400   -1.040400    0.894300
H      1.511200    1.449200    0.302000
H      0.158000    1.948300   -0.717100
H     -0.060600    1.797700    1.029700
H     -0.892500   -0.194200   -2.043500
H     -1.152300   -2.837000   -1.452400
H     -0.956400   -3.488300    2.030700
H     -0.205600   -4.369400    0.688500
H      1.095400   -4.094000    2.702900
H      0.743600   -0.931200    1.748600
