17
gdb_7001
C     -0.322700    1.509800   -0.075200
C      0.102900    0.061000   -0.029300
O      1.382400   -0.153900   -0.741300
C      1.946100   -0.758600    0.340100
O      3.027200   -1.248400    0.437100
C      0.723200   -0.574800    1.254400
C      0.968000    0.340900    2.453600
N      0.143900   -1.872700    1.589500
H      0.453400    2.174400    0.312000
H     -0.537900    1.804200   -1.106500
H     -1.234000    1.655500    0.514300
H     -0.650500   -0.600800   -0.462100
H      1.431900    1.291400    2.175700
H      0.023700    0.560400    2.965000
H      1.633500   -0.160300    3.162700
H      0.870300   -2.470800    1.974700
H     -0.558800   -1.766700    2.316600
