17
gdb_11703
C     -0.267800    1.516000    0.055800
C      0.103700    0.045300   -0.007900
C      1.215900   -0.450300   -0.973200
C      1.914400   -1.032300    0.262700
C      2.148300    0.042000    1.257400
N      0.799200   -0.536500    1.206400
C      2.501500   -2.328100    0.338900
C      3.009100   -3.418900    0.363000
H      0.605800    2.167500    0.152100
H     -0.798500    1.809200   -0.856300
H     -0.929000    1.704700    0.907800
H     -0.804900   -0.546900   -0.144900
H      0.871000   -1.210100   -1.674900
H      1.789000    0.305500   -1.518900
H      2.681000   -0.231400    2.162300
H      2.330300    1.057100    0.912100
H      3.454000   -4.382400    0.396500
