17
gdb_1467
C      0.077400    1.358600    0.170700
O     -0.025500   -0.040000    0.037100
C      0.588700   -0.559300   -1.140900
C      2.115900   -0.662300   -0.992500
C     -0.005000   -1.866100   -1.422400
C     -0.465300   -2.949800   -1.671300
C     -1.036400   -4.256300   -1.963800
H      1.112700    1.700500    0.316800
H     -0.337400    1.883200   -0.704900
H     -0.504100    1.636300    1.053300
H      0.362500    0.116600   -1.984200
H      2.556400   -1.078100   -1.902900
H      2.558900    0.322100   -0.817100
H      2.362400   -1.316600   -0.152700
H     -0.261000   -5.028000   -2.022800
H     -1.744700   -4.557600   -1.184300
H     -1.575800   -4.252300   -2.917400
