15
gdb_2893
N      0.634300   -1.053300   -0.005900
C      0.305500    0.055400    0.021000
C     -0.059100    1.491100    0.033100
C     -0.745300    1.892200    1.370900
C      0.376700    2.576400    2.200200
C      1.645600    2.416100    1.344500
N      1.106300    2.374000   -0.020100
H     -0.710800    1.668700   -0.828200
H     -1.561800    2.585700    1.162600
H     -1.170300    1.021200    1.871500
H      0.146800    3.634900    2.341700
H      0.494900    2.127600    3.188400
H      2.342000    3.252600    1.448200
H      2.179200    1.492300    1.621300
H      1.789200    2.067300   -0.704400
