14
gdb_20463
C      0.011500    1.542900    0.222000
N      1.278400    1.970800   -0.442200
C      2.199900    0.804000   -0.505900
C      1.282200   -0.382200   -0.368900
N      1.375600   -1.671900   -0.530500
O      0.096200   -2.147400   -0.197000
C     -0.695800   -1.106900    0.152600
C      0.000800    0.048200    0.059200
H      0.035800    1.826400    1.282300
H     -0.840300    2.058300   -0.229700
H      1.050500    2.233700   -1.394300
H      2.780800    0.817300   -1.431100
H      2.911200    0.836300    0.329300
H     -1.706000   -1.371900    0.423100
