23
gdb_15183
C      0.004500    1.521300   -0.111100
C      0.146200   -0.002100   -0.059200
C      0.661500   -0.515300    1.289900
C      0.812100   -2.038600    1.342000
C      1.321200   -2.544500    2.691400
N      1.424800   -4.000500    2.702100
C      2.697300   -4.558600    2.256500
C      2.319600   -4.578600    3.696700
H      0.966200    2.014800    0.068900
H     -0.363600    1.856500   -1.085900
H     -0.696800    1.880400    0.650600
H     -0.823500   -0.469200   -0.276300
H      0.825900   -0.334700   -0.855000
H      1.629200   -0.042500    1.510300
H     -0.021600   -0.187000    2.086200
H     -0.149700   -2.520500    1.128500
H      1.502100   -2.367400    0.553300
H      2.289400   -2.063200    2.929800
H      0.620700   -2.255400    3.485300
H      2.638400   -5.460900    1.654600
H      3.483200   -3.864000    1.961100
H      2.855900   -3.899800    4.358700
H      1.977200   -5.496000    4.167400
