18
gdb_11586
C     -0.316900    1.343500   -0.166400
C     -0.047800   -0.118200    0.085900
N      0.107900   -0.719700    1.193800
O      0.015500   -0.785300   -1.085100
C      0.281300   -2.194200   -1.007700
C      0.320700   -2.730100   -2.408900
C     -0.128600   -4.122200   -2.660100
N     -0.926700   -2.985200   -3.144800
H      0.480500    1.772200   -0.781100
H     -1.251600    1.463800   -0.722200
H     -0.383300    1.897100    0.771400
H      0.028600   -0.066000    1.969200
H      1.230800   -2.353200   -0.484500
H     -0.501600   -2.680900   -0.413500
H      1.112100   -2.317800   -3.031100
H      0.348500   -4.713600   -3.435900
H     -0.495100   -4.699000   -1.814300
H     -1.723400   -2.832400   -2.530200
