15
gdb_18608
C     -0.203200    1.515600   -0.080200
N      0.049600    0.084800    0.027500
C      1.374600   -0.515400   -0.170400
C      2.585400    0.365000   -0.068800
C      2.718000    0.894900    1.155200
C      1.630600    0.392200    2.045500
O      1.490200    0.612700    3.224800
C      0.738300   -0.497600    1.182100
H      0.623300    2.166000    0.235000
H     -0.445400    1.743100   -1.122900
H     -1.078800    1.749900    0.531800
H      1.397100   -1.391000   -0.811900
H      3.229100    0.566600   -0.917700
H      3.462400    1.606300    1.489800
H      0.254900   -1.347500    1.653700
