11
gdb_12172
O     -0.017700    1.285300    0.284700
C      0.089200   -0.071700   -0.007900
C     -1.283400   -0.757500   -0.224300
O     -0.881700   -1.163000   -1.570500
C      0.313700   -0.475700   -1.484000
O      1.123600   -0.310800   -2.331100
C     -1.616900   -1.892600    0.624600
N     -1.876500   -2.777300    1.320100
H      0.866900    1.664500    0.330600
H      0.745100   -0.621100    0.678700
H     -2.105500   -0.039500   -0.265000
