16
gdb_3325
O      0.846500   -0.636800   -1.035300
C      0.153100   -0.002300    0.024200
C     -1.310300   -0.401400    0.023200
C     -2.354400    0.300300    0.933200
C     -3.097200    0.648300   -0.356100
C     -2.236200    1.428200   -1.258800
N     -2.071900   -0.043600   -1.242500
H      0.303000   -0.530800   -1.825300
H      0.625800   -0.330000    0.957500
H      0.264500    1.093200   -0.023100
H     -1.367500   -1.489100    0.117700
H     -2.884100   -0.394400    1.586300
H     -2.017300    1.154800    1.528900
H     -4.162200    0.524400   -0.523300
H     -2.663800    1.777700   -2.193300
H     -1.463100    2.073900   -0.849300
