14
gdb_2136
C     -0.048900    1.550000    0.006000
C      0.048900    0.023800    0.002200
N      0.824900   -0.480200   -1.149200
C      1.765400   -1.185300   -0.657200
N      1.790100   -1.287900    0.729200
C      0.742200   -0.528700    1.252300
N      0.400800   -0.306900    2.454800
H      0.948500    1.999100    0.021400
H     -0.568900    1.897000   -0.890100
H     -0.591500    1.879100    0.895500
H     -0.962500   -0.397500   -0.055300
H      2.521500   -1.699400   -1.242700
H      2.493400   -1.760400    1.271900
H      1.013000   -0.777100    3.123500
