16
gdb_6196
C      0.066200    1.463600    0.110900
C     -0.046100   -0.053700   -0.035300
C     -1.490500   -0.533400   -0.057800
C      0.797900   -0.593300   -1.211200
O      2.028900   -0.983700   -0.603400
C      1.854300   -1.104500    0.740400
O      2.671100   -1.533200    1.490800
O      0.622500   -0.667000    1.095700
H      1.114400    1.777100    0.102500
H     -0.451100    1.965900   -0.712600
H     -0.383100    1.787400    1.053200
H     -2.002000   -0.150900   -0.946900
H     -1.533600   -1.625500   -0.073400
H     -2.028300   -0.177700    0.825000
H      0.337800   -1.467600   -1.685200
H      1.004700    0.163100   -1.971200
