20
gdb_7361
C     -0.081000    1.545600    0.093700
C      0.020700    0.007700   -0.010900
C      0.702500   -0.465400   -1.303300
C     -0.038200   -0.082100   -2.578900
O      0.622300   -0.723700   -3.660000
C      0.794600   -0.491500    1.215600
C     -0.031800   -0.865400    2.433200
O      2.001800   -0.565800    1.215900
H      0.912500    1.997600    0.011800
H     -0.712800    1.955000   -0.698700
H     -0.514300    1.855800    1.050200
H     -0.996800   -0.403300    0.038700
H      1.724100   -0.075700   -1.338200
H      0.792200   -1.557800   -1.288700
H     -1.092300   -0.402800   -2.511400
H     -0.039100    1.010300   -2.713200
H      0.199000   -0.447100   -4.477900
H     -0.771600   -0.091400    2.663700
H     -0.592900   -1.783500    2.220100
H      0.618200   -1.032700    3.292900
