12
gdb_4153
O     -0.130000    1.375400    0.069300
N      0.039400   -0.004000    0.183800
C     -1.050100   -0.614800    0.021100
C     -2.504100   -0.335700   -0.257000
O     -2.776000   -1.763200   -0.186800
C     -1.391800   -2.094800    0.069800
C     -0.802400   -2.943100   -0.970400
N     -0.333000   -3.612600   -1.786300
H      0.765200    1.709400    0.200200
H     -3.039800    0.229900    0.513700
H     -2.728200    0.084200   -1.244500
H     -1.258900   -2.574100    1.047900
