14
gdb_13327
O     -0.420000    0.109200    0.285500
C     -0.102900    1.257200    0.140900
N      1.182100    1.742300   -0.040500
C      2.364500    1.025400   -0.093300
N      2.542200   -0.223400    0.010000
C      3.990200   -0.430400   -0.120300
C      4.586900    0.991200   -0.320700
O      3.430000    1.858200   -0.285300
H     -0.823900    2.099200    0.134500
H      1.290400    2.739500   -0.147900
H      4.381600   -0.920800    0.777300
H      4.200200   -1.090900   -0.968200
H      5.267300    1.298400    0.477900
H      5.084500    1.126500   -1.284700
