11
gdb_23698
F      0.073900    0.080000    0.003000
C     -0.046900    1.387300    0.011400
N     -1.212700    1.928300    0.029800
C     -1.158300    3.307900    0.036300
N     -0.113900    4.071900    0.026200
C      1.140100    3.469200    0.006300
N      2.278200    4.031700   -0.006200
N      1.115300    2.047500   -0.000700
H     -2.131700    3.793000    0.051900
H      2.146800    5.041800    0.000700
H      2.000900    1.559500   -0.015200
