12
gdb_21856
O      0.042700    1.362800    0.147100
C     -0.032100    0.017800    0.049700
C     -1.188400   -0.666200    0.058700
C     -1.133200   -2.112400   -0.004000
N     -2.174100   -2.852400   -0.045200
N      0.176600   -2.718800   -0.018200
N      1.232000   -2.047900   -0.023000
N      1.156800   -0.675900   -0.044600
H      0.813700    1.695300   -0.327900
H     -2.140800   -0.157600    0.095200
H     -1.881000   -3.830700   -0.088200
H      2.042300   -0.239800    0.161100
