11
gdb_21407
N     -0.101800    1.316200    0.145400
C      0.022600    0.058700   -0.006700
N     -1.101100   -0.750800   -0.072400
C     -1.103000   -2.113900   -0.233600
O     -2.082200   -2.796500   -0.288200
O      0.143300   -2.706800   -0.337000
N      1.336600   -1.985500   -0.283500
C      1.260300   -0.719400   -0.131700
H      0.807700    1.773600    0.175300
H     -2.008200   -0.309700    0.003900
H      2.214100   -0.201800   -0.095900
