20
gdb_10307
C     -0.249000    1.474500    0.088000
N      0.126600    0.068700   -0.046500
C      0.761000   -0.510200    1.132900
C     -0.153800   -0.508100    2.302900
N     -0.921400   -0.486300    3.168000
C      1.296300   -1.937100    0.847200
C      2.310400   -1.903000   -0.302600
C      1.901600   -2.575200    2.103700
H      0.655000    2.078800    0.220600
H     -0.735700    1.800900   -0.834700
H     -0.925300    1.681800    0.932000
H     -0.690000   -0.484100   -0.288700
H      1.615500    0.129600    1.393600
H      0.433000   -2.542300    0.535800
H      2.624100   -2.918500   -0.562800
H      1.889100   -1.425100   -1.188300
H      3.207600   -1.343900   -0.010400
H      1.176500   -2.645000    2.918800
H      2.257700   -3.585100    1.880100
H      2.759800   -1.994500    2.462400
