12
gdb_4236
F      0.277600    0.092400    0.112700
C      0.000700    1.408200    0.063700
F      1.152300    2.049300   -0.198000
F     -0.804000    1.608100   -0.993800
C     -0.625500    1.895500    1.333100
C     -1.559900    0.990100    2.092200
C     -0.195500    1.297800    2.647200
H     -0.850300    2.955500    1.297800
H     -2.427500    1.446200    2.553900
H     -1.726400   -0.002700    1.692100
H      0.547500    0.510100    2.617100
H     -0.114500    1.967900    3.494800
