16
gdb_9134
C     -0.666100    1.178500   -0.154600
C      0.576800    0.303400    0.090100
C      1.045300   -0.373700   -1.113900
C      1.415700   -0.924000   -2.117500
C      1.866700   -1.590700   -3.339400
N      1.232200   -2.907100   -3.490300
C      1.654500   -0.701600   -4.513200
N      1.479300   -0.062900   -5.460600
H     -0.456500    1.953000   -0.896800
H     -1.500300    0.575000   -0.522100
H     -0.975000    1.664500    0.775200
H      1.390200    0.919900    0.492900
H      0.357100   -0.447000    0.859900
H      2.949800   -1.761800   -3.271400
H      0.224600   -2.788500   -3.544600
H      1.529300   -3.325600   -4.367800
