17
gdb_2465
C      0.151900    1.543700    0.069200
C      0.079800    0.029700   -0.013800
C      0.775400   -0.610900   -1.238100
C      1.297400   -1.936800   -0.687000
C      2.551700   -1.889900    0.166100
C      1.194000   -1.816200    0.808300
O      0.738500   -0.529900    1.135700
H      1.193800    1.878900    0.056700
H     -0.371300    1.997400   -0.778600
H     -0.313400    1.902800    0.991500
H     -0.975600   -0.289300    0.001700
H      0.074300   -0.759400   -2.063900
H      1.586900    0.029300   -1.603600
H      1.049900   -2.858300   -1.199800
H      3.120900   -2.807900    0.273300
H      3.142300   -0.979400    0.160800
H      0.827900   -2.609200    1.453400
