12
gdb_4631
O      0.040400   -0.046000    0.003000
C     -0.000200    1.165500    0.009400
N     -1.127800    1.991500    0.029200
C     -0.779000    3.328000    0.031000
C      0.578700    3.399900    0.012700
N      1.044800    2.075900    0.000100
C      1.431800    4.515700    0.006700
C      2.190100    5.452300    0.001000
H     -2.058600    1.613500    0.039900
H     -1.504700    4.122000    0.045000
H      2.009100    1.794500   -0.014900
H      2.848100    6.285600   -0.003800
