16
gdb_12974
O     -0.217700    1.452900    0.053000
C     -0.148700    0.044100    0.043400
C     -0.483400   -0.805800    1.244400
C     -1.556500   -0.107800    2.084600
C     -2.510400   -0.105600    0.835800
O     -3.066400    1.097900    0.378200
C     -1.401300   -0.764900    0.004600
O     -1.606500   -1.765500   -0.928300
H      0.480200    1.789700    0.625500
H      0.644500   -0.361600   -0.583800
H      0.177700   -1.596000    1.578200
H     -1.933400   -0.714400    2.910000
H     -1.295300    0.885100    2.460400
H     -3.338900   -0.803900    0.979800
H     -2.320200    1.687500    0.206800
H     -1.806100   -1.351900   -1.776000
