15
gdb_13155
O      0.459600    0.107200    0.698400
C      0.106400    1.202700    0.338400
C      1.119100    2.227300   -0.016100
N      1.891000    3.042700   -0.293100
C     -1.314000    1.648800    0.156700
C     -1.839800    1.663900   -1.326200
C     -3.166600    1.050400   -0.802400
C     -2.444400    0.654400    0.513800
H     -1.443400    2.635700    0.612000
H     -1.877600    2.633800   -1.823600
H     -1.282700    0.964000   -1.954600
H     -3.927500    1.817500   -0.637200
H     -3.605500    0.245600   -1.394600
H     -2.070100   -0.371400    0.497900
H     -2.969900    0.824300    1.455000
