15
gdb_1152
O     -0.074400    1.320700    0.018800
C      0.020300   -0.055200   -0.003200
C      0.661400   -1.004600    1.062400
C      0.035800   -1.908700   -0.024100
O      0.084500   -3.285900    0.035100
C     -1.220700   -0.976700   -0.005000
C      0.648600   -0.964400   -1.107300
H      0.816300    1.687100    0.016500
H      1.753200   -1.010700    1.128500
H      0.187900   -1.025200    2.046900
H     -0.364200   -3.639900   -0.740200
H     -1.823000   -0.986500    0.906600
H     -1.837700   -0.957200   -0.908000
H      0.160200   -0.948400   -2.085900
H      1.739300   -0.963400   -1.190300
