13
gdb_4264
C      0.070900    1.506700    0.015200
C     -0.056900    0.021800    0.005100
C     -1.174700   -0.705300   -0.151000
C     -1.133600   -2.169500   -0.136500
O     -2.106700   -2.875400   -0.271200
N      0.162800   -2.737000    0.051700
C      1.152500   -1.957700    0.189100
O      1.150800   -0.598700    0.181600
H      0.745800    1.838500   -0.780900
H     -0.904300    1.973900   -0.127400
H      0.495000    1.848200    0.965400
H     -2.131500   -0.218700   -0.290800
H      2.165500   -2.323800    0.335900
