11
gdb_204
C     -0.011500    1.500300    0.043400
C      0.002700    0.011000   -0.027300
C     -0.077500   -0.810100   -1.102500
O     -0.022700   -2.107000   -0.664200
C      0.089700   -1.993500    0.676500
N      0.110700   -0.780600    1.118700
H      0.906800    1.877300    0.505300
H     -0.102000    1.940600   -0.952800
H     -0.848900    1.853500    0.654100
H     -0.169700   -0.665900   -2.165000
H      0.149800   -2.913000    1.237600
