15
gdb_11446
O     -0.099900    1.397700    0.171100
C      0.007400   -0.011300    0.054200
C     -1.415200   -0.547000   -0.104700
C     -1.503900   -2.085000   -0.035700
O     -1.851600   -2.378000    1.320700
C     -2.327900   -1.244900    1.931600
O     -2.732400   -1.224900    3.059000
N     -2.261500   -0.206400    1.024000
H      0.760200    1.755700    0.408300
H      0.608400   -0.303300   -0.821800
H      0.467200   -0.459600    0.948700
H     -1.834300   -0.160300   -1.039100
H     -2.284400   -2.472900   -0.698600
H     -0.558500   -2.581500   -0.270300
H     -2.239100    0.732100    1.391900
