18
gdb_10657
C      0.158100    1.244100    0.547700
C     -0.468200    0.052800   -0.190000
C      0.395100   -0.426200   -1.334500
O      1.714400   -0.931700   -1.034500
C      0.772400   -1.845600   -1.579900
C      0.320700   -3.001200   -0.725000
C      0.405700    0.431300   -2.568900
O     -0.401700    1.291300   -2.812400
H      1.140200    0.976600    0.948200
H      0.281400    2.100100   -0.121800
H     -0.477800    1.558000    1.380200
H     -0.652500   -0.763800    0.512000
H     -1.434900    0.345000   -0.613400
H      0.986500   -2.117800   -2.617200
H      0.180900   -2.706500    0.315900
H     -0.617800   -3.415600   -1.107700
H      1.074200   -3.795100   -0.753500
H      1.248600    0.194300   -3.256500
