15
gdb_3520
C      0.103300    1.511600   -0.039900
O      1.168500    0.569400   -0.171200
C     -0.156800    0.067000    0.018100
C     -0.428600   -0.648600    1.309100
C     -1.898200   -1.054500    1.578000
O     -1.562200   -2.454300    1.598200
C     -0.172700   -2.175500    1.330500
H      0.105800    2.093900    0.880900
H     -0.142300    2.070700   -0.941600
H     -0.580400   -0.406600   -0.870800
H      0.046900   -0.111200    2.132100
H     -2.318700   -0.714500    2.532000
H     -2.606400   -0.811400    0.774000
H      0.159200   -2.607300    0.377300
H      0.482500   -2.537300    2.131400
