16
gdb_8827
C      0.799800    1.376200   -0.016900
O      0.883200   -0.048600   -0.159400
C      0.023500   -0.589600   -1.038300
O     -0.800100    0.034200   -1.654300
C      0.238500   -2.107900   -1.137700
C     -0.980700   -2.789900   -1.779400
C      1.471400   -2.373300   -1.877800
C      2.468000   -2.596300   -2.510700
H      1.005500    1.869500   -0.970000
H     -0.195500    1.670900    0.324700
H      1.553800    1.644000    0.722900
H      0.372600   -2.471400   -0.111200
H     -1.875400   -2.609300   -1.178200
H     -1.155300   -2.389000   -2.779000
H     -0.811600   -3.866500   -1.851600
H      3.354500   -2.794200   -3.060800
