10
gdb_494
N      0.072000    1.152600   -0.244500
C     -0.177000   -0.038200    0.069800
O     -0.590500   -0.904600   -0.895400
C     -0.855900   -2.229400   -0.473700
C     -2.107400   -2.347100    0.292400
N     -3.082200   -2.439000    0.904800
H      0.376500    1.679000    0.571600
H     -0.098200   -0.494600    1.065100
H     -0.934500   -2.828000   -1.384200
H     -0.032700   -2.636500    0.127900
