16
gdb_11842
N     -0.244900   -1.175400   -0.329000
C     -0.128800   -0.037500   -0.157100
C      0.053600    1.399500    0.047600
C     -0.150600    1.866600    1.525400
C      1.373000    1.999800    1.579900
C      2.221300    2.908000    2.404600
C      2.304200    1.399200    2.587600
N      1.472800    1.848600    0.118000
H     -0.528100    1.937100   -0.707200
H     -0.687100    2.815200    1.589000
H     -0.606300    1.137100    2.194400
H      3.050300    3.402600    1.909100
H      1.745500    3.496700    3.182500
H      1.884400    0.959700    3.487000
H      3.193900    0.896200    2.220700
H      2.143400    1.155700   -0.200700
