18
gdb_16667
C      0.034600    1.585500   -0.036900
C      0.046500    0.060500    0.001100
C      0.727200   -0.623100   -1.218700
C      1.267600   -1.933200   -0.669700
O      2.470300   -1.769200    0.104900
C      1.220800   -1.916600    0.800800
C      0.718800   -0.546600    1.273100
O      1.782300    0.226900    1.795300
H      1.052600    1.983100   -0.010000
H     -0.455600    1.950400   -0.945500
H     -0.500400    1.998600    0.824300
H     -0.990600   -0.301100    0.019100
H      0.019700   -0.788600   -2.036800
H      1.551800   -0.022300   -1.619200
H      1.229900   -2.851500   -1.250000
H      1.136800   -2.805600    1.419900
H     -0.012400   -0.642900    2.081800
H      2.553300    0.005000    1.255100
