20
gdb_6994
C     -0.623300    1.307400   -0.045400
C      0.125700   -0.016300   -0.108800
C      1.513400   -0.042400   -0.822600
C      2.029300   -0.902300    0.338000
O      2.988600   -1.602400    0.496300
C      0.778200   -0.621400    1.198600
C      1.095300    0.403600    2.296600
C      0.107000   -1.863100    1.781800
H      0.001600    2.112100    0.354600
H     -0.951000    1.612200   -1.045100
H     -1.516200    1.233000    0.584800
H     -0.525200   -0.776900   -0.553100
H      1.581500   -0.480700   -1.821300
H      2.002800    0.938700   -0.843200
H      1.626800    1.278900    1.910500
H      0.176200    0.754100    2.778500
H      1.727800   -0.054800    3.062900
H      0.757800   -2.341300    2.520600
H     -0.834800   -1.601100    2.277600
H     -0.113800   -2.601700    1.004700
