14
gdb_3315
O      0.007100    0.072000   -0.276800
C      0.059400    1.262700   -0.052300
N      1.191800    1.938300    0.272500
C      2.592700    1.518000    0.075100
C      2.969600    3.001300   -0.081600
C      2.150400    3.648000   -1.171400
C      1.506900    3.356200    0.156600
H     -0.829600    1.927700   -0.047600
H      3.008900    1.046300    0.969800
H      2.746900    0.864000   -0.788700
H      3.849500    3.464000    0.341500
H      2.379900    4.693100   -1.354300
H      1.854800    3.084000   -2.052100
H      1.052900    4.094900    0.805400
