17
gdb_6850
C     -0.019600    1.541400   -0.000800
C     -0.006200    0.012000   -0.009500
O     -1.334700   -0.507100    0.035600
C      0.722400   -0.523000   -1.247100
O      0.802200   -1.948900   -1.241900
C      1.034100   -2.513900   -0.029400
N      1.042200   -1.980900    1.114200
C      0.698200   -0.568100    1.225300
H      0.993000    1.957100   -0.014900
H     -0.556100    1.931000   -0.874500
H     -0.531200    1.902100    0.895900
H     -1.783200   -0.266300   -0.782400
H      0.193800   -0.253100   -2.167700
H      1.736800   -0.105800   -1.301300
H      1.229100   -3.577300   -0.153200
H      1.608900    0.003900    1.442500
H      0.035000   -0.446600    2.088400
