20
gdb_7283
C      0.010700    1.562000    0.011600
C      0.029000    0.027100    0.024800
C      0.834700   -0.497200    1.222000
C     -1.409400   -0.528200   -0.005000
O     -2.154800   -0.007700   -1.105400
C     -1.486600   -2.063200   -0.013400
C     -2.919100   -2.531300   -0.162600
O     -3.293600   -3.347100   -0.963800
H      1.024800    1.961800   -0.086800
H     -0.597000    1.940500   -0.812500
H     -0.411100    1.952100    0.945800
H      0.522500   -0.319300   -0.897200
H      1.821400   -0.024800    1.252800
H      0.329900   -0.262200    2.167000
H      0.990400   -1.578900    1.182200
H     -1.943200   -0.153100    0.879400
H     -1.767000   -0.354600   -1.917400
H     -0.891700   -2.491200   -0.828900
H     -1.100200   -2.465900    0.931900
H     -3.630000   -2.061100    0.555300
