17
gdb_9503
C     -0.076800    1.776100   -0.069800
C      0.058600    0.267000    0.042700
N      1.244000   -0.299600   -0.682400
C      1.582100   -1.160700    0.481100
C      0.597800   -0.345800    1.363200
O      1.183500    0.641500    2.180900
C     -1.189900   -0.446800   -0.446800
O     -1.805300   -1.292700    0.152600
H      0.861200    2.249600    0.222200
H     -0.305900    2.060700   -1.102900
H     -0.876600    2.150200    0.577700
H      1.034900   -0.790000   -1.548500
H      1.297400   -2.215000    0.380000
H      2.634900   -1.091800    0.773200
H     -0.145400   -0.939100    1.903600
H      1.465600    0.223200    2.999700
H     -1.479400   -0.157300   -1.486100
