19
gdb_13075
C     -0.085700    1.577100   -0.082300
C      0.002200    0.053200   -0.040800
C      1.178300   -0.529300   -0.882600
C      2.006200   -0.692400    0.420700
C      0.685800   -0.566400    1.224800
C      0.681100    0.215200    2.544900
C      1.466200   -0.454300    3.580900
N      2.092400   -1.000200    4.384500
H      0.886300    2.050500    0.096800
H     -0.429500    1.907600   -1.068000
H     -0.791200    1.967000    0.659800
H     -0.982800   -0.368100   -0.263500
H      0.927200   -1.492000   -1.335300
H      1.590600    0.121400   -1.658100
H      2.584100   -1.609300    0.549500
H      2.672300    0.158600    0.593500
H      0.269700   -1.561400    1.410000
H      1.089400    1.221600    2.401700
H     -0.344000    0.339900    2.914600
