15
gdb_16206
N     -0.055400    1.271400   -0.200600
C     -0.025000    0.021000   -0.045800
O      1.084700   -0.748500    0.171200
C      0.643000   -2.083900    0.429500
O     -0.642500   -2.203000   -0.120300
C     -1.190700   -0.905000   -0.063100
C     -2.436400   -0.620800    0.744300
C     -2.469100   -0.611800   -0.768800
H      0.876000    1.678800   -0.118400
H      1.316900   -2.787600   -0.065000
H      0.638800   -2.246900    1.518800
H     -2.885200   -1.468400    1.249600
H     -2.483600    0.327000    1.268100
H     -2.530800    0.343000   -1.278100
H     -2.947400   -1.447900   -1.266000
