13
gdb_3696
C      0.007500    1.451600   -0.003200
C     -0.012700   -0.039500    0.015100
N     -0.106100   -0.758500   -1.087600
N     -0.084700   -2.039800   -0.595500
C      0.019600   -2.013700    0.750500
N     -0.003000   -3.142400    1.547500
N      0.073400   -0.766400    1.176300
H      0.932100    1.832700    0.442100
H     -0.069400    1.815200   -1.029200
H     -0.824300    1.856100    0.582400
H     -0.204300   -2.819900   -1.218100
H      0.525100   -3.928100    1.193500
H      0.257900   -2.919600    2.498400
