18
gdb_6150
C     -0.251700    1.531300   -0.042800
C     -0.017800    0.025000   -0.017800
O     -1.228500   -0.685800   -0.176800
C      1.181000   -0.435000   -0.905500
C      2.079100   -0.464500    0.371600
C      0.769100   -0.468800    1.219800
C      2.978200   -1.657000    0.522900
O      4.163400   -1.617800    0.732100
H      0.675700    2.085900    0.129600
H     -0.645100    1.845300   -1.018100
H     -0.973700    1.814900    0.729200
H     -1.727000   -0.283700   -0.896500
H      0.995600   -1.444200   -1.285200
H      1.503600    0.210500   -1.726100
H      2.667800    0.445800    0.498400
H      0.750800    0.147100    2.121500
H      0.459600   -1.487700    1.470700
H      2.444200   -2.633500    0.419500
