17
gdb_16537
C     -0.379000    1.570700    0.084400
C     -0.050700    0.089700   -0.030900
C      0.762400   -0.496100   -1.219900
C      1.980400    0.273800   -1.808600
C      2.895900   -0.592200   -0.892200
N      1.682000   -1.192300   -0.243400
C      1.128300   -0.434800    0.824400
O      1.552000   -0.206800    1.920900
H      0.499800    2.198600   -0.089300
H     -1.153600    1.860600   -0.632200
H     -0.744400    1.792400    1.091200
H     -0.954100   -0.509200    0.131000
H      0.220400   -1.135800   -1.919200
H      2.130300    0.148000   -2.882200
H      1.998200    1.341600   -1.577500
H      3.479800   -1.349100   -1.420800
H      3.542400   -0.067700   -0.184600
