13
gdb_18824
O     -0.016000   -0.019500    0.062100
C      0.011700    1.167100    0.008100
O     -1.107500    1.957700    0.152800
C     -0.689300    3.299000   -0.011900
C      0.478600    3.827800    0.816900
C      1.320000    2.650100    1.277600
N      1.183700    2.016400   -0.116400
C      0.659700    3.329200   -0.613100
H     -1.488400    3.966400   -0.301800
H      0.488300    4.839300    1.203300
H      2.367900    2.907200    1.439300
H      0.959100    2.028000    2.102600
H      1.003000    3.774700   -1.537000
