16
gdb_15036
O      0.176600   -0.063800    0.190500
C      0.127600    1.132700    0.089300
C      1.345800    2.030300   -0.079500
C      1.228100    2.884400   -1.334500
O      2.040200    2.902300   -2.220200
C      1.448400    2.953600    1.135600
C      2.127800    2.466200    2.390800
C      2.788500    3.518000    1.535900
H     -0.843400    1.677600    0.141200
H      2.233700    1.399700   -0.169000
H      0.322700    3.533700   -1.367600
H      0.588600    3.604700    1.272100
H      1.707700    2.762900    3.345100
H      2.545400    1.465400    2.379800
H      3.652100    3.227000    0.947900
H      2.822600    4.537500    1.902600
