17
gdb_1244
C      0.023400    1.558900    0.054300
C     -0.000800    0.031000    0.026400
O      0.720400   -0.518900    1.128600
C     -1.428400   -0.525500   -0.041100
C     -1.455600   -2.064600   -0.115300
C     -2.805900   -2.611800   -0.103600
C     -3.930500   -3.036700   -0.090300
H      1.053000    1.920400    0.121000
H     -0.437300    1.980600   -0.844700
H     -0.530900    1.940000    0.921500
H      0.554400   -0.317900   -0.854200
H      0.320000   -0.177900    1.936700
H     -1.988100   -0.195300    0.844500
H     -1.947100   -0.104700   -0.909900
H     -0.934600   -2.393600   -1.024300
H     -0.877600   -2.465400    0.724800
H     -4.917700   -3.427000   -0.079600
