16
gdb_19954
O     -0.027300   -0.085600    0.153200
C     -0.045000    1.106000    0.160900
C     -1.098100    2.202100    0.361300
O     -0.063900    3.198800    0.256300
C      0.997100    2.233900    0.005900
C      2.129900    2.293100    0.983400
C      3.473200    1.725100    0.589400
C      3.299500    3.213000    0.722500
H     -1.849500    2.270100   -0.436400
H     -1.603300    2.206100    1.335500
H      1.373000    2.319400   -1.025200
H      1.831500    2.168300    2.020000
H      4.036400    1.195600    1.348700
H      3.575700    1.308800   -0.407000
H      3.279700    3.809200   -0.183400
H      3.745500    3.712900    1.574500
