18
gdb_8268
C     -0.223700    1.422900    0.117100
C     -0.063100   -0.022800    0.077700
C      0.062600   -1.220300    0.041900
C      0.225900   -2.661900    0.006400
C      0.453600   -3.409600    1.347200
C     -0.772200   -4.248900    0.929300
C     -1.962700   -4.309100    1.863500
O     -1.011400   -3.391100   -0.216300
H      0.306200    1.907900   -0.710000
H     -1.280800    1.701300    0.042900
H      0.163300    1.841500    1.052700
H      0.966100   -2.933700   -0.759300
H      1.404800   -3.933700    1.447100
H      0.281600   -2.784000    2.224400
H     -0.502300   -5.260700    0.593600
H     -2.230100   -3.306900    2.211800
H     -2.829600   -4.737500    1.350500
H     -1.735700   -4.936200    2.732900
