18
gdb_17113
C      0.125700    1.329500    0.038600
O     -0.051700   -0.071800   -0.065400
C      0.608600   -0.638000   -1.150900
O      2.043600   -0.560200   -1.024200
C      2.406000   -1.955200   -0.953300
C      1.589400   -2.569000   -2.118600
C      0.415500   -2.156900   -1.175600
C      1.355100   -2.558800    0.007000
H      1.178100    1.586700    0.205700
H     -0.224600    1.845000   -0.868600
H     -0.470800    1.665200    0.889600
H      0.316800   -0.122600   -2.079600
H      3.483900   -2.048900   -0.832300
H      1.673900   -2.081400   -3.092900
H      1.692500   -3.651700   -2.210300
H     -0.603400   -2.522900   -1.285700
H      1.444900   -3.640700    0.116100
H      1.206700   -2.066600    0.968000
