16
gdb_19797
O     -0.028500    1.397700    0.104900
C      0.032900   -0.002800   -0.030000
C      0.779100   -0.690500    1.131200
N      0.232200   -0.309500    2.446600
C     -0.150500   -1.603300    1.843500
C     -1.480100   -1.590800    1.107600
N     -2.175800   -0.286900    1.114100
C     -1.357000   -0.670400   -0.051000
H     -0.490600    1.540300    0.943100
H      0.552500   -0.204200   -0.972400
H      1.842900   -0.884900    1.039000
H      0.936900   -0.467300    3.163000
H      0.180600   -2.524800    2.310200
H     -2.064500   -2.503800    1.067600
H     -3.159200   -0.428800    0.896200
H     -1.846600   -0.850100   -1.002800
