9
gdb_772
N     -0.008800    1.380400    0.161200
C      0.037700    0.008100    0.036300
N     -1.029300   -0.751100    0.000200
O     -0.553700   -2.045900   -0.039400
N      0.804200   -2.076300   -0.042500
C      1.192000   -0.834500    0.006600
H      0.728200    1.875900   -0.318500
H     -0.920100    1.772200   -0.032400
H      2.238700   -0.572900    0.022800
