15
gdb_15066
O      0.231800    1.270500   -0.151300
C      0.027700   -0.116900   -0.040300
C     -1.474600   -0.488800    0.094400
C     -2.198200   -0.002500   -1.082000
N     -2.733300    0.414400   -2.018000
C     -1.642400   -1.985900    0.313300
C     -2.706700   -2.792600   -0.293300
O     -1.366800   -2.828400   -0.799100
H     -0.093600    1.556300   -1.012500
H      0.453200   -0.676200   -0.883800
H      0.540600   -0.436300    0.872200
H     -1.870700    0.041200    0.970000
H     -1.210200   -2.325900    1.256000
H     -3.038500   -3.699100    0.209400
H     -3.435000   -2.318800   -0.947400
