15
gdb_1534
C     -0.102600    1.390700   -0.024800
O     -0.004900   -0.011500   -0.116800
C     -1.224300   -0.654300    0.088100
C     -1.035300   -2.170500    0.042600
O      0.039900   -2.700800    0.100600
C     -2.344800   -2.948800   -0.080200
O     -2.109600   -4.306800    0.177700
H      0.897400    1.795200   -0.195500
H     -0.788900    1.805000   -0.780600
H     -0.452900    1.711200    0.969200
H     -1.659400   -0.402800    1.074800
H     -1.980800   -0.355800   -0.662000
H     -3.083700   -2.502900    0.609100
H     -2.726600   -2.769400   -1.101500
H     -2.929200   -4.786200    0.026300
