17
gdb_15135
N     -0.039100    1.220000   -0.004400
C     -0.118500   -0.019400   -0.228700
O     -1.135000   -0.734600    0.288700
C     -1.084600   -2.148700    0.100800
C     -2.474400   -2.707200    0.381900
C     -2.500500   -4.210600    0.261600
C     -3.630600   -4.929700   -0.336900
O     -2.416600   -4.742400   -1.066100
H      0.770200    1.607200   -0.485200
H      0.573800   -0.618100   -0.837900
H     -0.783800   -2.390500   -0.926500
H     -0.344300   -2.586300    0.785300
H     -2.781700   -2.412000    1.392000
H     -3.186600   -2.264800   -0.321600
H     -1.887700   -4.751300    0.986100
H     -3.842400   -5.954400   -0.035300
H     -4.487800   -4.366900   -0.704100
