16
gdb_14663
C     -0.034700    1.558500   -0.025500
C      0.009400    0.018700    0.018100
C      0.707300   -0.498700    1.185800
C      1.290600   -0.914700    2.162200
C      1.945100   -1.383200    3.257900
C      2.526800   -1.803900    4.232100
C      3.232200   -2.270500    5.415700
O      3.272600   -3.692200    5.423800
H      0.975400    1.975500   -0.047800
H     -0.568400    1.894900   -0.919000
H     -0.546500    1.957300    0.854200
H     -1.013900   -0.378900    0.003000
H      0.494500   -0.361000   -0.890700
H      4.248300   -1.841500    5.417400
H      2.721900   -1.879800    6.311900
H      3.746900   -3.959900    6.217800
