15
gdb_1645
C      0.008800    1.529600   -0.021100
C     -0.045400    0.005800   -0.083900
C     -1.452600   -0.541100   -0.043000
O     -2.440900    0.162000    0.002000
C     -1.620400   -2.058800   -0.052000
N     -2.930400   -2.429500   -0.145900
N     -0.567300   -2.785500    0.005600
H      1.045100    1.876400   -0.058500
H     -0.535900    1.978900   -0.855800
H     -0.445900    1.902900    0.900600
H      0.430600   -0.384000   -0.992400
H      0.517700   -0.464800    0.729900
H     -3.607500   -1.693600   -0.010300
H     -3.202800   -3.373900    0.065900
H     -0.795000   -3.782400    0.001300
