15
gdb_11843
N     -0.613900   -1.032800   -0.651200
C     -0.282500    0.029700   -0.340600
C      0.114700    1.381800    0.060800
C     -0.144000    1.761400    1.544700
C      1.374500    1.877800    1.611500
C      2.243800    2.900000    2.257000
C      2.336800    1.430100    2.655300
O      1.539400    1.516200    0.229200
H     -0.271700    2.097200   -0.673600
H     -0.700400    2.689800    1.678600
H     -0.585900    0.969800    2.150100
H      3.053600    3.305600    1.660000
H      1.792700    3.602200    2.950900
H      1.948900    1.124500    3.621700
H      3.205700    0.876500    2.316500
