14
gdb_16201
O      0.036100   -0.026800    0.005200
C      0.028500    1.182400    0.010600
N     -1.087900    2.020500    0.028800
C     -0.653500    3.341200    0.029100
N      0.618100    3.499300    0.013600
C      1.158100    2.168100    0.000800
C      2.453400    1.844300    0.727600
C      2.434600    1.851100   -0.761400
H     -2.040800    1.695800    0.039500
H     -1.372900    4.151900    0.042000
H      2.917100    2.676100    1.243600
H      2.476300    0.887500    1.237100
H      2.444500    0.898800   -1.280000
H      2.885200    2.687500   -1.281400
