16
gdb_701
C     -0.208300    1.326700   -0.202700
C      1.252900    1.144100    0.131900
C      0.331800   -0.050700    0.094800
C     -0.045600   -0.759800    1.356300
C     -0.966900   -1.954500    1.319200
C      0.494300   -2.137300    1.653700
H     -0.844800    1.790200    0.544200
H     -0.477900    1.568700   -1.224900
H      1.983100    1.261200   -0.661400
H      1.596500    1.485200    1.103200
H      0.445900   -0.709900   -0.763100
H     -0.159500   -0.100600    2.214200
H     -1.697100   -2.071500    2.112600
H     -1.310600   -2.295400    0.347900
H      1.130600   -2.600900    0.906700
H      0.763900   -2.379400    2.675900
