17
gdb_19709
O     -0.006200    1.450900   -0.105900
C      0.022100    0.051900   -0.008400
C     -0.051500   -0.620400    1.383800
C     -1.522300   -0.124500    1.557700
C     -2.276300   -1.211700    2.313600
C     -1.601300   -2.438900    1.641000
N     -0.641000   -1.841000    0.679900
C     -1.349900   -0.622800    0.086300
H      0.897900    1.774200   -0.049600
H      0.721900   -0.414800   -0.709900
H      0.723600   -0.728500    2.146900
H     -1.733900    0.923600    1.765200
H     -2.106400   -1.165400    3.394000
H     -3.356700   -1.167500    2.143600
H     -1.054500   -3.071100    2.346700
H     -2.305300   -3.074100    1.095500
H     -2.112600   -0.730700   -0.688100
