17
gdb_1186
C      0.019800    1.424300    0.158300
O      0.008500    0.023100   -0.003100
C      0.579200   -0.504500   -1.198000
C     -0.175500   -0.061700   -2.462800
C      2.085300   -0.215400   -1.314700
C      0.390900   -2.018200   -1.029200
O      0.745500   -2.831700   -1.840700
H      1.037500    1.837500    0.178300
H     -0.551800    1.942500   -0.623600
H     -0.453200    1.627200    1.122300
H      0.021400    0.987800   -2.698500
H      0.152300   -0.671900   -3.308000
H     -1.253600   -0.195000   -2.333200
H      2.596400   -0.457400   -0.378200
H      2.508100   -0.831300   -2.112200
H      2.272900    0.835000   -1.554200
H     -0.109000   -2.298400   -0.077000
