16
gdb_5385
C     -0.011700    1.538400    0.010000
C     -0.015800   -0.000500    0.002500
C     -1.419500   -0.546200    0.012800
N     -1.987000   -0.755100    1.209500
C     -3.240500   -1.209200    1.205500
C     -3.941400   -1.458800    0.031900
C     -3.260100   -1.204000   -1.152100
N     -2.006800   -0.749800   -1.175100
H      1.012900    1.921400    0.002600
H     -0.529800    1.931300   -0.870100
H     -0.513800    1.922500    0.903200
H      0.493400   -0.366400   -0.893300
H      0.509900   -0.374900    0.885100
H     -3.696300   -1.380100    2.178900
H     -4.958500   -1.831300    0.039500
H     -3.732200   -1.370600   -2.118500
