18
gdb_8520
C      0.010400    1.398100   -0.085100
C     -0.012300   -0.088800    0.010100
O      0.911100   -0.851900   -0.773100
C      0.109000   -2.030100   -0.439800
C      0.166700   -3.117900   -1.465300
C      0.422800   -2.232800    1.070900
C     -0.326200   -0.917800    1.272000
C     -1.104300   -1.102000   -0.032400
H      0.969900    1.794800    0.263900
H     -0.140800    1.726800   -1.118200
H     -0.781700    1.829600    0.534200
H      1.195000   -3.481700   -1.568500
H     -0.468200   -3.959100   -1.171000
H     -0.165700   -2.751100   -2.440700
H     -0.130400   -3.078500    1.489000
H      1.482600   -2.292700    1.340100
H     -0.671900   -0.466100    2.193400
H     -2.156900   -1.071900   -0.279900
