16
gdb_12229
O     -0.421800    1.023800    1.256300
C     -0.046300    0.082700    0.271700
C      0.464900   -1.268500    0.825900
C     -0.960400   -1.884800    0.688700
C     -1.781000   -1.836200    1.941300
O     -1.664800   -0.987300    2.801800
C     -1.298600   -0.658200   -0.288700
O     -2.505200    0.014300   -0.164400
H     -0.719100    0.526800    2.039400
H      0.581700    0.610900   -0.449100
H      1.177400   -1.753000    0.154900
H      0.883900   -1.235400    1.833900
H     -1.037400   -2.871700    0.228300
H     -2.557000   -2.620500    2.048800
H     -1.171200   -0.994400   -1.322100
H     -2.326300    0.738100    0.458200
