20
gdb_12515
C     -0.233300    1.535200    0.018700
C      0.010900    0.047400    0.009500
C     -0.034700   -0.651200   -1.129400
C      0.144400   -2.141900   -1.293300
C      1.353800   -2.756900   -0.581100
O      1.243400   -2.786400    0.828400
C      1.446500   -1.543800    1.470000
C      0.262500   -0.575000    1.371600
H      0.636400    2.077700    0.412500
H     -0.451500    1.920600   -0.980700
H     -1.076700    1.790800    0.674000
H     -0.254700   -0.103700   -2.043900
H     -0.753900   -2.673400   -0.945800
H      0.238700   -2.374200   -2.360800
H      1.456300   -3.804000   -0.886300
H      2.271800   -2.224500   -0.879700
H      1.618200   -1.786800    2.524400
H      2.357700   -1.058500    1.082600
H      0.431700    0.222700    2.105300
H     -0.638200   -1.109100    1.707200
