16
gdb_4187
C     -0.057800    1.561900    0.029200
C      0.093500    0.062200   -0.091400
C      0.612800   -0.665400   -1.284000
N      1.351400   -0.685100    0.073000
C      2.454900    0.138500   -0.555600
C      1.753000    0.059400   -1.894300
N      2.045200    0.260600   -3.110400
O      3.295300    0.899000   -3.218900
H      0.635400    2.117300   -0.604900
H     -1.072200    1.847400   -0.266600
H      0.088100    1.880600    1.067100
H     -0.704600   -0.485300    0.408400
H      0.122800   -1.538100   -1.701400
H      2.620600    1.119000   -0.102700
H      3.392500   -0.423000   -0.548300
H      3.408100    0.962800   -4.173200
