19
gdb_12249
C     -0.007100    1.526700    0.075200
C     -0.099500    0.007400   -0.042000
N      0.603600   -0.488900   -1.212100
C      0.003800   -0.227800   -2.541900
C      0.323600   -1.685100   -2.900900
O      0.360400   -2.328300   -3.906100
C      0.636100   -1.960900   -1.421200
C      1.923400   -2.682800   -1.057900
H      1.038100    1.845200    0.122200
H     -0.472300    2.019000   -0.785500
H     -0.521400    1.876000    0.975600
H      0.354600   -0.457700    0.841100
H     -1.164800   -0.301600   -0.051000
H     -1.086000   -0.052300   -2.524600
H      0.479600    0.557700   -3.137500
H     -0.232900   -2.468100   -0.961600
H      2.783400   -2.187500   -1.516100
H      2.072000   -2.696900    0.026500
H      1.884800   -3.718100   -1.410400
