23
gdb_13624
C      0.686800    1.462400   -4.135500
C      1.073700    0.318200   -3.193100
C      0.143200   -0.911000   -3.251600
C      0.155900   -1.591500   -4.630000
C      0.553100   -1.900100   -2.170700
C      0.098900   -1.753100   -0.757900
N     -0.339100   -2.889900   -1.560100
C     -1.745500   -2.949100   -1.926000
H      0.757800    1.172100   -5.188100
H     -0.341000    1.796000   -3.951500
H      1.345100    2.324600   -3.989800
H      2.101900   -0.003400   -3.409500
H      1.084800    0.692200   -2.162200
H     -0.876400   -0.560300   -3.046200
H      1.167100   -1.932200   -4.883300
H     -0.500400   -2.466400   -4.645600
H     -0.176100   -0.913800   -5.421500
H      1.555500   -2.302200   -2.330200
H      0.758600   -1.975600    0.077400
H     -0.629200   -0.965200   -0.559600
H     -2.291400   -3.449300   -1.119200
H     -2.224000   -1.971400   -2.094700
H     -1.864300   -3.550600   -2.833100
