24
gdb_6055
C     -0.161200    1.334900    0.113600
O      0.082300   -0.044000   -0.028400
C      0.716900   -0.510100   -1.235600
C     -0.000800    0.022100   -2.486100
C      2.189200   -0.066400   -1.237700
C      0.607300   -2.057200   -1.095400
C     -0.850300   -2.540800   -1.052300
C      1.399400   -2.845600   -2.148200
H      0.750900    1.944700    0.040000
H     -0.889500    1.717000   -0.615500
H     -0.578100    1.471400    1.115400
H      0.173300    1.093700   -2.620200
H      0.372200   -0.478800   -3.383700
H     -1.079200   -0.143800   -2.424500
H      2.721400   -0.495400   -0.383200
H      2.697600   -0.374500   -2.154900
H      2.271600    1.022700   -1.178200
H      1.050300   -2.270100   -0.113600
H     -1.328400   -2.470400   -2.035800
H     -0.890900   -3.591800   -0.748200
H     -1.434500   -1.954200   -0.341100
H      2.468800   -2.621000   -2.126400
H      1.287700   -3.919600   -1.966600
H      1.033200   -2.652700   -3.163000
