18
gdb_5524
C      0.045400    1.578800    0.150400
C     -0.021300    0.048400   -0.019000
C     -1.408800   -0.504100   -0.081600
C     -2.249500   -0.732600   -1.155900
N     -1.979300   -0.454000   -2.514600
C     -3.486600   -1.223400   -0.645400
C     -3.372500   -1.278100    0.724800
N     -2.124000   -0.835400    1.058500
H      1.082800    1.928800    0.187100
H     -0.459000    2.081200   -0.680100
H     -0.451100    1.891300    1.074700
H      0.516700   -0.233400   -0.933800
H      0.531500   -0.431400    0.800500
H     -0.985000   -0.421400   -2.707100
H     -2.394900   -1.145900   -3.127000
H     -4.356300   -1.495400   -1.224600
H     -4.072500   -1.600200    1.478700
H     -1.755100   -0.791700    1.991700
