16
gdb_18488
N     -0.007300   -1.256800   -0.241300
C     -0.033500   -0.107900   -0.122300
C     -0.066500    1.347200    0.015300
C      1.332500    1.963400    0.128800
C      1.466800    3.491100    0.380000
C      2.285900    3.110900    1.612200
C      1.501200    2.254000    2.515300
N      2.146200    1.615900    1.350100
H     -0.568000    1.768800   -0.864200
H     -0.687300    1.604500    0.879800
H      1.918300    1.653400   -0.739400
H      2.033300    3.999200   -0.401400
H      0.550500    4.057800    0.575000
H      3.238900    3.546300    1.892300
H      1.957700    1.943900    3.449600
H      0.419500    2.359300    2.561900
