19
gdb_15089
C      0.152100   -0.509000    1.327600
O     -0.208900   -0.982900    0.049600
C      0.615400   -0.517800   -1.008000
C      1.837800   -1.431400   -1.179800
O      2.791200   -0.720400   -1.962600
C     -0.245600   -0.473600   -2.253200
C     -0.735900    0.818300   -2.790000
N      0.300100    0.058200   -3.508800
H      1.167200   -0.813600    1.622700
H      0.093900    0.588800    1.382400
H     -0.557800   -0.935800    2.040400
H      0.995100    0.493900   -0.789900
H      2.250900   -1.686100   -0.192700
H      1.528600   -2.367100   -1.665600
H      3.401400   -1.352000   -2.352500
H     -0.863200   -1.362400   -2.372400
H     -1.697100    0.870700   -3.293500
H     -0.452200    1.726200   -2.262600
H      1.224200    0.443500   -3.329600
