12
gdb_5058
O     -0.007300    0.054900   -0.642900
C     -0.017100    1.194700   -0.213800
C     -1.295300    1.858500    0.158300
N     -1.596000    3.108600    0.218400
C     -0.737800    4.145300   -0.019700
C      0.627600    4.164000   -0.037700
N      1.519800    3.151200    0.177200
C      1.251900    1.893300    0.124600
H     -2.086200    1.144100    0.397600
H     -1.238200    5.104400   -0.132800
H      1.098500    5.136300   -0.163700
H      2.068100    1.200800    0.342500
