18
gdb_6455
C      0.068200    1.610400    0.056400
C      0.052800    0.090200    0.009000
C      1.090000   -0.633200   -0.892900
C      1.315200   -1.693200    0.237700
O      2.629600   -2.051700    0.519000
C      0.619600   -0.694600    1.223700
C      0.477600   -2.926400    0.016500
O      0.942000   -4.039900    0.089000
H      1.071600    1.983200    0.290300
H     -0.233200    2.041300   -0.904800
H     -0.617000    1.991500    0.821600
H     -0.959100   -0.258800   -0.226000
H      0.773700   -0.985500   -1.878500
H      2.011200   -0.053900   -1.000400
H      2.652200   -3.022200    0.498200
H      1.401600   -0.133600    1.742900
H     -0.079900   -1.096900    1.961600
H     -0.593900   -2.759400   -0.217100
