13
gdb_20464
C     -0.000200    1.517700    0.217500
N      1.265800    1.961100   -0.434500
C      2.209900    0.809200   -0.513300
C      1.309200   -0.386800   -0.385500
N      1.332000   -1.674200   -0.531900
O      0.048900   -2.078500   -0.198200
N     -0.753300   -1.005700    0.157700
C      0.022400    0.025700    0.040000
H      0.009000    1.779600    1.282800
H     -0.862400    2.012000   -0.235300
H      1.044600    2.247400   -1.381100
H      2.784800    0.842900   -1.441200
H      2.923700    0.845300    0.319100
