16
gdb_19741
C     -0.036600    1.610600   -0.087300
O      1.340000    2.019200    0.027700
C      2.044300    0.896700    0.551000
C      1.476500    0.523300    1.949100
C      0.456100   -0.505600    1.420900
O      1.349800   -1.417500    0.708700
C      1.468300   -0.329300   -0.235200
C      0.010200    0.094700    0.042600
H     -0.647400    2.091300    0.689600
H     -0.414800    1.933600   -1.063600
H      3.111700    1.098400    0.483800
H      2.198400    0.031600    2.604000
H      1.054300    1.395800    2.453100
H     -0.227100   -0.999200    2.111300
H      1.881900   -0.593200   -1.206700
H     -0.763700   -0.479200   -0.463000
