13
gdb_17017
O     -0.021000   -0.051400   -0.193200
C     -0.009900    1.129000    0.056900
C      1.266300    1.933000    0.043400
C      1.219200    3.347100   -0.627200
N      0.381000    3.791700    0.568200
C      1.485300    2.955400    1.208800
C      2.449300    3.702800    0.249400
O      3.445900    4.348900    0.242700
H     -0.931800    1.683100    0.308600
H      2.112800    1.295600   -0.215300
H      0.951800    3.600300   -1.651000
H      0.512000    4.787700    0.761700
H      1.521600    2.761900    2.278800
