13
gdb_4646
C     -0.038300    1.482400    0.018900
C     -0.000600   -0.007700   -0.027500
N     -0.035200   -0.746400   -1.110700
C      0.022800   -2.056600   -0.671000
C      0.093900   -2.102400    0.701500
N      0.077200   -0.792400    1.097500
C      0.008400   -3.166500   -1.556500
N     -0.001900   -4.086600   -2.259100
H      0.864200    1.896100    0.482400
H     -0.107300    1.859100   -1.001800
H     -0.902200    1.848300    0.584600
H      0.151600   -2.923600    1.395300
H      0.116000   -0.466600    2.049600
