16
gdb_13608
C      0.181800    1.370400    0.064400
O      0.200100   -0.063300    0.010500
C      0.414300   -0.594100   -1.203200
O      0.573300    0.082400   -2.205200
C      0.462600   -2.065500   -1.172200
C     -0.097600   -2.809200   -2.392700
C      1.377100   -2.733200   -2.220500
O      2.187200   -1.983200   -3.047900
H      1.140500    1.779700   -0.263000
H     -0.608800    1.769600   -0.575300
H     -0.005700    1.623000    1.107800
H      0.364700   -2.521800   -0.196000
H     -0.614300   -3.742500   -2.199600
H     -0.537000   -2.181400   -3.160600
H      1.895300   -3.621600   -1.874300
H      1.766400   -1.112600   -3.149300
