16
gdb_6883
C     -0.051400    1.591300   -0.125900
C      0.013600    0.085500   -0.019200
O     -1.154400   -0.580900   -0.417000
C      1.293700   -0.647800   -0.224400
O      2.433600    0.107800   -0.491000
C      0.655700   -0.615300    1.182300
C      1.289900    0.142000    2.282500
O      1.234400   -0.190200    3.443600
H      0.900700    2.059100    0.127700
H     -0.288500    1.874100   -1.158700
H     -0.836400    1.987600    0.523900
H     -1.294300   -0.395700   -1.353500
H      1.226200   -1.608300   -0.734000
H      3.197900   -0.350700   -0.124900
H      0.151300   -1.522400    1.495900
H      1.850800    1.050300    1.977700
