18
gdb_9629
C      0.013100    1.592100   -0.262500
C      0.008900    0.122800    0.178400
C     -1.371700   -0.504200    0.105700
O     -2.327600    0.114400    0.927700
C     -1.870200   -1.137000   -1.153000
C     -1.569000   -2.014000    0.069000
C     -0.436300   -2.964500    0.016300
O     -0.403700   -4.017000    0.605600
H      1.022600    2.009300   -0.214300
H     -0.345100    1.700900   -1.292200
H     -0.622100    2.202700    0.387300
H      0.704600   -0.446300   -0.446700
H      0.371700    0.045600    1.210000
H     -2.589000    0.941900    0.509300
H     -2.916200   -1.020500   -1.411400
H     -1.190100   -1.218100   -1.995800
H     -2.421000   -2.364400    0.640000
H      0.410000   -2.653500   -0.639600
