17
gdb_7736
C      0.032700    1.516800    0.031500
C     -0.037000    0.018800   -0.007900
C     -0.040900   -0.683800   -1.148300
C     -0.017500   -2.165800   -1.192100
O      0.137200   -2.791900   -2.227400
N     -0.137600   -2.788100    0.031700
C     -0.688800   -2.093700    1.185800
C     -0.049400   -0.710700    1.316200
H      0.907800    1.849600    0.605000
H      0.094600    1.947400   -0.970600
H     -0.845900    1.936800    0.537300
H     -0.001200   -0.204100   -2.120300
H     -0.268900   -3.787100   -0.034700
H     -1.781500   -1.979500    1.099700
H     -0.493600   -2.690000    2.081900
H      0.984500   -0.803700    1.679100
H     -0.590700   -0.128200    2.070100
