11
gdb_23788
N     -0.050200    1.354700   -0.053300
C     -0.011400    0.004500   -0.021100
N     -1.167300   -0.659300   -0.010500
C     -1.035000   -1.974400   -0.002600
F     -2.164600   -2.651100    0.006100
N      0.059800   -2.713900    0.000900
N      1.218100   -2.038800   -0.005900
C      1.206000   -0.724100   -0.017700
H      0.784500    1.900100    0.065000
H     -0.943400    1.809200    0.041000
H      2.171100   -0.226700   -0.024700
