14
gdb_8777
C     -0.016000    1.435000    0.082500
N     -0.004900   -0.014300    0.048400
C      0.470800   -0.572800   -0.999000
N      0.959500    0.004100   -2.137700
C      0.494800   -2.081100   -1.053700
O      0.996000   -2.658700   -2.000600
C     -0.089700   -2.790700    0.059800
C     -0.558200   -3.463600    0.940400
H      1.002000    1.857500    0.050400
H     -0.573100    1.863200   -0.765700
H     -0.485700    1.777600    1.007000
H      1.261200    0.962800   -2.120000
H      1.430300   -0.623100   -2.773200
H     -0.976600   -4.041300    1.728300
