17
gdb_3324
O     -0.061400    1.426200   -0.188600
C      0.050400    0.035000    0.085000
C     -1.338700   -0.565200   -0.020500
C     -2.032600   -0.644500   -1.423300
C     -2.229900   -2.152900   -1.219600
C     -0.900300   -2.825400   -1.043300
C     -1.498600   -2.085600    0.125200
H      0.821100    1.807500   -0.175900
H      0.733400   -0.453300   -0.627200
H      0.452200   -0.143500    1.096700
H     -1.990400   -0.038300    0.682800
H     -2.963200   -0.075600   -1.459300
H     -1.418100   -0.358100   -2.283400
H     -3.122700   -2.710600   -1.474700
H     -0.931400   -3.907000   -0.957100
H     -0.021100   -2.451000   -1.562400
H     -1.730500   -2.598000    1.051700
