19
gdb_8040
C     -0.057700    1.526400    0.148700
N      0.016500    0.083100    0.147500
C     -1.224100   -0.675000    0.426800
C     -0.413200   -1.620200    1.341800
O     -0.953300   -1.985500    2.576600
C      0.499200   -2.660800    0.616700
C      1.710100   -1.678900    0.739300
C      0.747900   -0.587000    1.254300
H      0.944900    1.949800    0.024200
H     -0.669500    1.865600   -0.694600
H     -0.495100    1.947300    1.074300
H     -1.954400   -0.110200    1.028100
H     -1.722400   -1.086200   -0.460200
H     -1.514500   -2.757800    2.444000
H      0.614600   -3.589800    1.180600
H      0.194200   -2.897900   -0.405300
H      2.429000   -2.001700    1.497500
H      2.238300   -1.433800   -0.183700
H      1.040800    0.057200    2.088900
