14
gdb_11982
C     -0.047200    1.614500   -0.096000
C      0.002600    0.101200   -0.032400
O     -1.255700   -0.493700    0.225000
C      0.690000   -0.658300   -1.185300
O      2.031900   -0.204100   -1.205200
C      1.708500   -1.289700   -0.303400
C      1.068600   -0.609400    0.894500
O      1.138000   -0.727500    2.081900
H      0.913900    2.017000   -0.424300
H     -0.832000    1.936900   -0.787200
H     -0.270700    2.025900    0.894500
H     -1.481100   -0.317600    1.146200
H      0.247600   -1.056100   -2.090200
H      2.270800   -2.210000   -0.403200
