13
gdb_14294
O      0.132400    1.250600   -0.308600
C     -0.004600   -0.108400   -0.083300
C     -0.501100   -0.619400    1.255700
O     -1.057600    0.364000    2.093600
C     -2.168300    0.892800    1.499000
N     -2.815700    1.833300    2.015900
O     -2.425800    0.250300    0.318000
C     -1.404200   -0.679700    0.056800
H      0.595500    1.644300    0.439600
H      0.707600   -0.755900   -0.595600
H     -0.063100   -1.450300    1.793200
H     -3.602300    2.089000    1.424700
H     -1.744500   -1.567300   -0.459500
