22
gdb_7201
C     -0.061700    1.392000   -0.005500
O     -0.004600   -0.012600    0.000400
C     -1.280700   -0.616600    0.018200
C     -1.119100   -2.137000    0.064800
C     -0.366500   -2.563900    1.333400
C     -2.496900   -2.803400   -0.075700
C     -2.451400   -4.319200   -0.226100
O     -3.780100   -4.764400   -0.462400
H      0.966200    1.763200   -0.022200
H     -0.592300    1.777000   -0.891300
H     -0.567200    1.785900    0.891000
H     -1.856100   -0.268500    0.895500
H     -1.851800   -0.322300   -0.879200
H     -0.509100   -2.411900   -0.807400
H     -0.110000   -3.627000    1.317000
H      0.558900   -1.992300    1.432000
H     -0.975900   -2.380700    2.227200
H     -3.124200   -2.558200    0.791200
H     -3.014000   -2.403200   -0.956700
H     -1.786500   -4.587800   -1.064200
H     -2.037400   -4.784800    0.680900
H     -3.768400   -5.724000   -0.522200
