15
gdb_19944
N      0.156000    1.239100   -0.154400
C      0.086900    0.003800    0.040300
O      1.058400   -0.915800    0.374700
C      0.077700   -2.000000    0.425800
C     -1.044200   -1.014500    0.023100
C     -2.166700   -0.784300    0.997000
C     -3.454600   -0.230500    0.568800
O     -3.312500   -1.625700    0.849100
H      1.111400    1.583200   -0.042300
H      0.319900   -2.783600   -0.294600
H      0.007300   -2.415400    1.434400
H     -1.449200   -1.190700   -0.975900
H     -1.859000   -0.624000    2.031600
H     -4.059700    0.331500    1.277700
H     -3.605800    0.024800   -0.478700
