17
gdb_6301
C     -0.141800    1.649300    0.138000
C     -0.040600    0.114000    0.042200
C      0.785300   -0.483000    1.200400
C      2.268700   -0.127600    1.096900
N      2.965600   -0.247900    2.263800
O      2.796400    0.220400    0.057400
C     -1.365100   -0.502300   -0.005500
C     -2.458400   -1.002500   -0.022400
H      0.857800    2.088800    0.109900
H     -0.720000    2.048400   -0.698900
H     -0.640500    1.948600    1.065600
H      0.498600   -0.128100   -0.881200
H      0.377900   -0.160600    2.165700
H      0.706900   -1.576700    1.179400
H      2.545700   -0.602000    3.105200
H      3.964300   -0.121900    2.236900
H     -3.422700   -1.445400   -0.056700
