15
gdb_12341
C     -0.096200    1.506300    0.072200
C      0.022200   -0.028300   -0.032800
C      0.841200   -0.469000   -1.258700
N      2.273300   -0.238600   -1.103200
C      2.729500   -0.286200    0.067300
O      2.045700   -0.551700    1.236800
C      0.659900   -0.569800    1.230700
O      0.089200   -0.952000    2.206900
H      0.886600    1.985000    0.105400
H     -0.629500    1.893200   -0.801100
H     -0.650600    1.792700    0.969400
H     -0.982700   -0.456500   -0.076000
H      0.689500   -1.538100   -1.460400
H      0.496600    0.067300   -2.148600
H      3.783600   -0.141900    0.287300
