17
gdb_17064
C      0.036600    1.314900   -0.212200
O     -0.046100    0.035500    0.374300
C     -1.283300   -0.566900    0.196100
C     -1.580700   -1.402300   -1.096000
N     -0.550600   -2.395700   -0.598700
C     -1.385000   -2.047800    0.624700
C     -2.657400   -2.162400   -0.250700
O     -3.824400   -1.536500    0.214900
H      1.014800    1.726700    0.046200
H     -0.050200    1.271400   -1.308200
H     -0.746200    1.989600    0.169400
H     -2.105100    0.078800    0.522100
H     -1.621500   -1.084800   -2.139300
H     -0.807400   -3.336600   -0.920900
H     -1.188600   -2.482300    1.605100
H     -2.846600   -3.183500   -0.610300
H     -4.482400   -1.560100   -0.487200
