16
gdb_10513
O      0.786900   -1.652400   -0.183300
C     -0.095900   -0.820300   -0.895900
C     -1.447200   -0.691500   -0.202200
C     -2.403000    0.329400   -0.792200
C     -1.898000    1.753400   -0.631600
O     -1.882100    2.573700   -1.511800
C     -1.946500   -1.809000    0.606600
O     -1.338000   -0.664300    1.233500
H      0.742400   -1.357900    0.736200
H      0.325400    0.189500   -1.041100
H     -0.231800   -1.258500   -1.891000
H     -2.588400    0.137500   -1.853500
H     -3.359500    0.264600   -0.258000
H     -1.548300    1.997000    0.396000
H     -3.016100   -1.913200    0.778800
H     -1.360500   -2.722200    0.663000
