15
gdb_18000
O     -0.703900    0.704300    0.413000
C      0.300900    0.715700   -0.250200
C      1.424000    1.714500   -0.054500
N      2.753400    1.267600   -0.550100
C      2.934400    2.503400   -1.351100
C      2.455000    2.314500   -2.799900
O      1.077400    2.566700   -2.403300
C      1.468800    2.904600   -1.063300
H      0.479600   -0.005800   -1.075100
H      1.406000    2.077400    0.980300
H      3.442300    1.131500    0.178800
H      3.819600    3.107100   -1.149500
H      2.801000    3.075900   -3.509900
H      2.596000    1.312000   -3.214700
H      1.083300    3.871100   -0.734900
