20
gdb_6277
C     -0.084000    1.561800   -0.121500
C      0.027300    0.033800   -0.023200
C      0.736500   -0.537500   -1.258500
C      0.747500   -0.420500    1.258300
C     -0.015400   -0.107800    2.561800
O     -1.336600   -0.647700    2.553400
C      0.741600   -0.563100    3.732100
C      1.360400   -0.985200    4.672700
H      0.908200    2.029600   -0.124400
H     -0.589800    1.854200   -1.047400
H     -0.654800    1.989200    0.708300
H     -0.988300   -0.378600    0.013300
H      1.763800   -0.160600   -1.333400
H      0.786600   -1.631100   -1.222800
H      0.213500   -0.255800   -2.178300
H      0.915400   -1.505100    1.221700
H      1.741300    0.042200    1.318900
H     -0.164600    0.974900    2.641900
H     -1.257300   -1.602900    2.656700
H      1.902000   -1.338500    5.515300
