18
gdb_17003
C      0.075900    1.414700   -0.167400
C      1.416200    0.709200   -0.036200
C      1.566700    0.191300    1.398300
O      0.262800   -0.463600    1.359600
C      0.124500   -0.070400   -0.017100
C      0.077700   -1.027500   -1.181100
C      1.126500   -0.418900   -2.164000
C      2.191700    0.300000   -1.272500
H     -0.291900    2.004500    0.666100
H     -0.166000    1.813000   -1.146900
H      2.370200   -0.546800    1.510800
H      1.628900    0.927900    2.208300
H      0.405400   -2.010000   -0.824300
H     -0.903900   -1.152400   -1.648900
H      1.570500   -1.176000   -2.816100
H      0.638900    0.308600   -2.821400
H      2.679700    1.121100   -1.807900
H      2.978300   -0.406700   -0.982500
