14
gdb_17868
O      0.028600    0.023400    0.070500
C      0.011600    1.214800   -0.011400
C     -1.108700    2.290900    0.024000
C     -0.053400    3.125400    0.828300
C      1.040500    2.349900    0.021600
N      1.125800    2.912200   -1.350100
C     -0.005200    3.159300   -1.892800
N     -1.224400    2.814700   -1.343700
H     -2.084300    2.046700    0.440500
H     -0.071500    4.207400    0.686100
H     -0.050900    2.866400    1.888600
H      2.035200    2.194400    0.435400
H     -0.046100    3.637400   -2.870700
H     -2.018700    3.401900   -1.559400
