21
gdb_1131
C     -1.499200   -0.271600   -0.144200
C      0.009600   -0.118800    0.090400
C      0.430200   -0.837400    1.380100
C      0.790200   -0.611400   -1.141800
C      2.295900   -0.345900   -1.113200
C      2.988100   -0.838400   -2.385200
O      2.461300    1.063300   -0.952400
H     -1.821700    0.269700   -1.040000
H     -1.773300   -1.325800   -0.276600
H     -2.073200    0.113800    0.705200
H      0.233100    0.947800    0.208300
H      0.271500   -1.920100    1.298400
H      1.484500   -0.669300    1.618500
H     -0.158400   -0.481700    2.232300
H      0.631000   -1.690900   -1.270000
H      0.383800   -0.124300   -2.037900
H      2.737900   -0.871600   -0.251100
H      2.570500   -0.338100   -3.264800
H      4.063700   -0.628100   -2.351900
H      2.866300   -1.919700   -2.507700
H      3.404700    1.251600   -0.934000
