17
gdb_19978
O      0.107800    1.400300   -0.159200
C      0.044300    0.018200    0.048700
C     -0.121700   -0.512000    1.492000
O     -1.365900   -1.173000    1.152100
C     -1.312900   -0.705100   -0.216100
C     -2.464100    0.205800   -0.559500
C     -3.822500   -0.037200   -0.032200
N     -3.013400    1.087000    0.493200
H     -0.715500    1.800600    0.148700
H      0.893600   -0.410400   -0.486700
H      0.632700   -1.225700    1.841200
H     -0.257400    0.272200    2.247800
H     -1.259100   -1.543600   -0.922500
H     -2.362500    0.690100   -1.528500
H     -4.689600    0.252000   -0.618000
H     -3.962900   -0.894100    0.619700
H     -2.636100    0.763500    1.384200
