19
gdb_6126
C     -0.764700    1.206700   -0.392400
C      0.087200   -0.042200   -0.219600
N      1.367000   -0.078100   -0.987300
C      2.184000   -0.466500    0.211300
C      2.575500   -1.948100    0.260100
C      3.378400    0.449100    0.463500
C      0.929100   -0.171300    1.060300
O      0.716500   -0.043900    2.229800
H     -0.157100    2.106300   -0.262200
H     -1.210700    1.238200   -1.391300
H     -1.572000    1.217700    0.346600
H     -0.533900   -0.942400   -0.350500
H      1.380300   -0.773600   -1.725800
H      3.304500   -2.170400   -0.527900
H      3.032500   -2.198400    1.222300
H      1.707900   -2.600700    0.117800
H      3.084900    1.498200    0.380900
H      3.786900    0.276700    1.464200
H      4.169200    0.259300   -0.270400
