19
gdb_17683
C      0.079000    1.443700   -0.461700
N      0.183000    0.025400   -0.160600
C      1.505500   -0.546800    0.039200
C      0.548400   -0.442000    1.186400
C      0.830800    0.524800    2.319400
C     -0.211500   -1.685500    1.561500
C     -0.049700   -2.397600    2.836000
O     -1.195400   -1.577100    2.595700
H      0.882900    2.066900   -0.040300
H      0.099900    1.567900   -1.549400
H     -0.880000    1.824300   -0.096400
H      1.698600   -1.500000   -0.449200
H      2.360700    0.129500    0.059000
H      1.313300    1.436500    1.964400
H     -0.096500    0.791800    2.833500
H      1.501600    0.071200    3.055900
H     -0.540800   -2.256800    0.693400
H     -0.241300   -3.469200    2.877200
H      0.640400   -2.025200    3.590500
