13
gdb_5499
O      0.089400    1.321100    0.064300
C      0.054800   -0.033400    0.019900
C      0.027000   -0.802600   -1.115400
N     -0.003500   -2.123900   -0.703000
C      0.004600   -2.205600    0.652400
C      0.041100   -0.912500    1.155200
C      0.062300   -0.469200    2.493200
C      0.082100   -0.002300    3.606000
H      0.102800    1.579200    0.994600
H      0.026200   -0.528500   -2.155800
H     -0.028000   -2.912600   -1.324000
H     -0.015500   -3.150900    1.168300
H      0.098500    0.378800    4.596600
