15
gdb_8255
N      0.120500    1.219800    0.685900
C      0.018800    0.106200    0.124400
C     -1.116600   -0.861600   -0.138000
C     -0.020500   -1.718200   -0.807500
C     -0.120200   -1.963000   -2.306600
C      1.175500   -2.497100   -2.890000
O      1.258500   -3.506200   -3.540600
O      0.975400   -0.685100   -0.488700
H      1.081800    1.564000    0.666900
H     -1.577000   -1.282300    0.756900
H     -1.893400   -0.484000   -0.805600
H      0.227600   -2.638200   -0.270000
H     -0.923500   -2.673400   -2.524100
H     -0.349500   -1.009000   -2.801400
H      2.068800   -1.874000   -2.668900
