14
gdb_9120
C     -0.132900    1.601100   -0.245400
C     -0.041800    0.066200   -0.171300
C      0.741100   -0.520000   -1.247400
C      1.394400   -0.991300   -2.147900
C      2.171400   -1.540200   -3.220400
O      2.394100   -2.722100   -3.389400
C      2.763000   -0.541000   -4.228200
O      2.615500    0.648500   -4.171100
H      0.861000    2.052300   -0.192800
H     -0.598900    1.917900   -1.181600
H     -0.731500    1.981400    0.586800
H      0.397400   -0.241800    0.786500
H     -1.047000   -0.374700   -0.191900
H      3.346500   -1.057200   -5.019500
