14
gdb_15928
N     -0.059500   -1.166600   -0.131400
C     -0.025300   -0.015500   -0.028800
C      0.042400    1.429600    0.063000
C     -0.466800    2.285700   -1.125000
N      0.702400    3.200100   -0.973300
C      1.332000    2.311400    0.027600
C      0.938700    2.689100    1.464000
O     -0.311000    1.946700    1.354500
H     -0.484700    1.724000   -2.065400
H     -1.437800    2.759800   -0.957600
H      1.245200    3.294500   -1.822500
H      2.338900    1.949200   -0.177000
H      1.574600    2.262900    2.248400
H      0.771700    3.755700    1.634800
