14
gdb_12728
O      0.452100    1.317500   -0.308300
C      0.107500    0.004700   -0.067700
C      0.249900   -0.946100   -1.276400
O     -1.058300   -1.520900   -1.083100
C     -1.322400   -0.705200    0.064200
C     -0.875900   -1.391600    1.380100
C      0.430600   -0.578000    1.306100
O      1.244400   -0.231900    2.117400
H      0.793500    1.688500    0.515900
H      0.304300   -0.370900   -2.207600
H      1.055200   -1.688400   -1.251300
H     -2.287500   -0.198500    0.037700
H     -1.458400   -1.134300    2.269900
H     -0.781800   -2.477300    1.308400
