15
gdb_2312
C      0.030700    1.546400   -0.190900
C     -0.003400    0.056700    0.056000
N      1.273000   -0.673500   -0.007300
C      0.545500   -0.619900    1.264100
C      1.225200    0.125800    2.404000
C      2.117500   -0.747800    3.166800
N      2.806700   -1.455100    3.766700
H      0.931800    2.004500    0.222700
H      0.023900    1.751000   -1.266400
H     -0.844900    2.035600    0.249400
H     -0.871600   -0.439900   -0.377000
H      1.166700   -1.580000   -0.452600
H      0.026800   -1.519900    1.588800
H      1.809100    0.961400    2.009800
H      0.475500    0.539000    3.089300
