21
gdb_15268
C     -1.047200    2.124100   -0.802500
C     -0.947600    0.816700   -1.587300
N     -1.670300   -0.241600   -0.889200
C     -1.409100   -1.653100   -1.165900
C     -0.406200   -2.141900   -2.193600
C     -1.025500   -1.049700    0.150200
C      0.410500   -0.888800    0.583600
O      0.448200    0.133500    1.575900
H     -0.555200    2.937800   -1.345100
H     -2.095000    2.393900   -0.642700
H     -0.567700    2.013000    0.173800
H     -1.421200    0.929000   -2.570400
H      0.112300    0.588300   -1.780500
H     -2.322800   -2.249100   -1.171300
H      0.532100   -1.584800   -2.190300
H     -0.169100   -3.195800   -2.011900
H     -0.830000   -2.072200   -3.201600
H     -1.674700   -1.239100    1.005300
H      0.757800   -1.848500    0.999600
H      1.069100   -0.642400   -0.258700
H      1.355400    0.217800    1.884600
