13
gdb_21327
N     -0.359800   -0.498800   -1.428600
C     -0.187500    0.282200   -0.594900
C      0.077000    1.284900    0.436500
C      1.448200    1.895200    0.308000
C      2.106100    2.813900    1.101700
C      3.350800    3.002700    0.465300
N      3.465000    2.264000   -0.634800
N      2.296300    1.602200   -0.708600
H     -0.698000    2.058400    0.371000
H     -0.040400    0.812200    1.418700
H      1.739000    3.275900    2.004000
H      4.165500    3.645000    0.765400
H      2.135300    0.957500   -1.467000
