18
gdb_6188
C      0.114100    1.415900    0.164600
C     -0.063000   -0.088500   -0.056000
C     -1.534400   -0.484900   -0.071100
C      0.722200   -0.599800   -1.289800
C      2.084500   -0.980700   -0.708300
C      1.781200   -1.274500    0.758000
O      2.467700   -1.839900    1.558900
O      0.555900   -0.777400    1.068600
H      1.171600    1.697300    0.151400
H     -0.399600    1.980700   -0.619600
H     -0.302300    1.708100    1.132300
H     -2.037100   -0.036200   -0.933900
H     -1.637800   -1.571500   -0.135700
H     -2.039400   -0.143900    0.837000
H      0.225200   -1.482000   -1.704800
H      0.773500    0.155200   -2.077200
H      2.558300   -1.845600   -1.174400
H      2.805500   -0.156800   -0.745900
