11
gdb_21676
N      0.001100    1.357500    0.146700
C     -0.018700   -0.005900    0.043200
N     -1.127000   -0.715700   -0.015600
O     -0.653300   -2.037300   -0.038000
C      0.685100   -1.960800   -0.003500
N      1.143300   -0.741400    0.046100
C      1.421800   -3.165200   -0.023000
C      2.038600   -4.196400   -0.040300
H      0.851000    1.787600   -0.183600
H     -0.845100    1.824700   -0.141300
H      2.588400   -5.105800   -0.054600
