15
gdb_4905
C      0.019000    1.447600   -0.016100
C     -0.055200   -0.036200    0.015600
N     -1.095100   -0.794600   -0.142700
C     -0.608500   -2.092700   -0.018900
C     -1.502800   -3.279700   -0.138900
O     -0.714100   -4.445100    0.033500
C      0.722500   -2.042900    0.211400
O      1.093900   -0.722200    0.236400
H      0.695400    1.791800   -0.805300
H     -0.977900    1.848000   -0.201600
H      0.392900    1.844200    0.933500
H     -2.301400   -3.210400    0.617400
H     -1.998300   -3.262800   -1.123200
H     -1.290300   -5.210200   -0.043900
H      1.494200   -2.773900    0.367800
