16
gdb_14109
C      0.063900    1.096700   -0.810400
C     -0.064000    0.059400    0.282700
O      0.787100   -0.133700    1.126000
C     -1.309900   -0.747500    0.275900
C     -1.882600   -1.446200    1.479000
C     -1.489800   -2.268100    0.286900
C     -2.463300   -2.011000   -0.858700
O     -2.304800   -0.569400   -0.737400
H      1.007900    1.630700   -0.699200
H      0.009700    0.617800   -1.793600
H     -0.777200    1.797300   -0.766300
H     -1.201500   -1.506200    2.320300
H     -2.929700   -1.276400    1.713500
H     -0.721500   -3.028100    0.317900
H     -2.099600   -2.355300   -1.832500
H     -3.503600   -2.324900   -0.716400
