18
gdb_11613
C     -0.004000    1.584600    0.214600
C     -0.012600    0.058500    0.039100
O      0.749000   -0.586300    1.061200
C     -1.379000   -0.465000   -0.038300
C     -2.509400   -0.887500   -0.053300
C     -3.848600   -1.397600   -0.081900
C     -4.289500   -2.326000   -1.204300
C     -4.108000   -2.874600    0.178400
H      1.028800    1.937200    0.278600
H     -0.500500    2.077000   -0.626700
H     -0.529900    1.866200    1.132600
H      0.518600   -0.188500   -0.888600
H      0.220800   -0.560200    1.866700
H     -4.608900   -0.715700    0.288200
H     -5.296500   -2.197200   -1.584500
H     -3.548700   -2.576000   -1.954000
H     -3.243000   -3.497700    0.370600
H     -4.989000   -3.127200    0.757600
