20
gdb_9552
C      0.128400    1.500000    0.176000
C     -0.213200    0.043500   -0.156000
C      0.616900   -0.524000   -1.312400
C      0.355200    0.159300   -2.646200
O      2.045300   -0.487500   -0.989500
C      2.097700   -1.912700   -0.799200
C      0.668700   -2.078000   -1.356200
O     -0.294600   -2.722300   -0.558600
H      1.203800    1.607100    0.343500
H     -0.160500    2.186700   -0.625700
H     -0.392600    1.818900    1.083600
H     -0.046500   -0.581300    0.726300
H     -1.276600   -0.059700   -0.402700
H      0.595300    1.224700   -2.596100
H      0.972900   -0.286200   -3.431300
H     -0.698200    0.056900   -2.929100
H      2.918700   -2.374000   -1.360900
H      2.175400   -2.194300    0.259800
H      0.652100   -2.459600   -2.385000
H     -0.237200   -3.669600   -0.714000
