14
gdb_20806
C     -0.277600    1.609200   -0.065500
C      0.047800    0.108300    0.033300
C      0.808700   -0.407900   -1.135700
C      2.054800   -0.936700   -1.296300
O      3.000700   -1.159200   -0.365000
N      2.224700   -1.230500   -2.618700
N      1.179800   -0.919600   -3.269100
O      0.248900   -0.389700   -2.360500
H      0.637600    2.205500   -0.122600
H     -0.875800    1.819700   -0.955900
H     -0.843600    1.932700    0.812300
H      0.644100   -0.094800    0.928000
H     -0.883200   -0.462700    0.136000
H      3.761400   -1.551400   -0.810300
