20
gdb_11061
C     -0.067700    1.471400    0.016400
C      0.046000   -0.036400   -0.000700
C      0.647400   -0.660400   -1.288500
C      0.004400   -2.077700   -1.282500
C     -0.835200   -2.009700    0.012900
C      0.092600   -2.099500    1.245400
C      0.735000   -0.682100    1.231300
O     -1.262300   -0.643100    0.039600
H      0.925700    1.930300   -0.012000
H     -0.634100    1.826400   -0.849700
H     -0.576000    1.810300    0.923900
H      0.337800   -0.086300   -2.165800
H      1.740400   -0.680700   -1.270500
H     -0.641200   -2.224500   -2.151500
H      0.737100   -2.888900   -1.266900
H     -1.704800   -2.667300    0.037600
H     -0.490800   -2.262100    2.154600
H      0.822200   -2.909700    1.164500
H      1.824100   -0.701000    1.137200
H      0.487100   -0.123400    2.137600
