20
gdb_19658
C     -0.211400    1.621500   -0.040000
C      0.043300    0.120900    0.000300
C      1.108300   -0.587600   -0.896000
C      2.415000    0.134500   -0.513900
C      2.387700   -0.318100    0.963200
C      2.549200   -1.853500    0.799100
C      1.144700   -1.757500    0.187500
C      0.818700   -0.562400    1.138200
H      0.685500    2.208400    0.176100
H     -0.588500    1.933900   -1.020800
H     -0.966000    1.899100    0.704700
H     -0.910700   -0.409600   -0.115500
H      0.916900   -0.785800   -1.950900
H      3.294500   -0.245800   -1.042100
H      2.371000    1.215000   -0.665600
H      2.970200    0.245700    1.691200
H      3.390200   -2.220800    0.200800
H      2.517100   -2.385500    1.754900
H      0.475700   -2.604600    0.039600
H      0.438700   -0.689300    2.152300
