14
gdb_10456
N     -0.192600    1.280000    0.072200
C     -0.107800    0.029500    0.168400
O     -1.127600   -0.738800   -0.311800
C     -1.016200   -2.121700   -0.100900
C     -1.400600   -2.674400    1.261000
C     -2.329400   -2.835600    0.090000
C      0.036800   -2.772600   -0.848500
N      0.889400   -3.289000   -1.435000
H      0.639800    1.720300    0.458900
H      0.713800   -0.554100    0.599200
H     -0.861600   -3.540200    1.626500
H     -1.652200   -1.930000    2.007400
H     -3.201800   -2.195200    0.040400
H     -2.439100   -3.813700   -0.361400
