16
gdb_10106
C      0.275600    1.518000    0.014700
O     -0.077100    0.148900    0.077600
C      0.594600   -0.575700    1.095000
C     -0.087000   -1.952700    1.172800
C     -1.537100   -1.861300    1.607100
O     -2.067600   -2.654300    2.341900
C      2.033400   -0.707600    0.834700
C      3.209100   -0.824900    0.614300
H      1.341100    1.650500   -0.213400
H     -0.321900    1.961200   -0.784300
H      0.050500    2.034600    0.960100
H      0.467300   -0.053200    2.059800
H     -0.059500   -2.388100    0.165400
H      0.449600   -2.621900    1.848400
H     -2.094200   -0.999500    1.182700
H      4.249100   -0.927000    0.422700
