22
gdb_10300
C      0.014900    1.607400    0.067800
C     -0.030900    0.079900   -0.018000
C      0.722100   -0.499800   -1.241600
C      2.123500   -0.075800   -1.215400
C      3.275900    0.264900   -1.157500
C      0.619300   -2.051800   -1.358000
C     -0.837000   -2.538400   -1.375100
C      1.355900   -2.561800   -2.604500
H      1.043200    1.970200    0.147200
H     -0.433300    2.065800   -0.821100
H     -0.540900    1.963200    0.940700
H      0.393500   -0.358200    0.893800
H     -1.075000   -0.242400   -0.068100
H      0.258800   -0.076100   -2.146900
H      4.292200    0.570500   -1.122900
H      1.114400   -2.472200   -0.472200
H     -0.870000   -3.619000   -1.546600
H     -1.360100   -2.341300   -0.436400
H     -1.402200   -2.060400   -2.184700
H      2.401200   -2.244700   -2.611400
H      1.328800   -3.655300   -2.647800
H      0.882200   -2.182900   -3.518600
