15
gdb_6361
N      0.332700    0.603300   -0.316300
C     -0.660600    0.385000    0.585400
O     -0.772300    0.972000    1.642100
C     -1.717200   -0.640900    0.132800
C     -1.170300   -1.940100   -0.446100
O     -0.289700   -1.970600   -1.275000
C     -1.822200   -3.202600    0.092700
O     -1.304800   -4.327700   -0.558600
H      1.099700    1.185700   -0.019600
H      0.480300   -0.078300   -1.049000
H     -2.377900   -0.819700    0.982500
H     -2.313900   -0.171600   -0.660600
H     -1.641400   -3.209800    1.183000
H     -2.914100   -3.090200   -0.034600
H     -1.717000   -5.110200   -0.181200
