14
gdb_9864
C     -0.028000    1.506500    0.020300
C     -0.016000   -0.006500   -0.057100
C      0.771700   -0.699200   -1.101900
O      1.251500   -0.629200    0.235300
C     -1.167800   -0.674400    0.496300
C     -2.153100   -1.193900    0.970800
C     -3.255000   -1.790600    1.498800
C     -4.234400   -2.319300    1.967300
H      0.889000    1.908400   -0.417100
H     -0.889900    1.912200   -0.517500
H     -0.091300    1.832400    1.062400
H      0.461700   -1.685700   -1.440800
H      1.312100   -0.096200   -1.831100
H     -5.093900   -2.786500    2.379900
