18
gdb_15353
O     -0.125700    1.322200   -0.766900
C      0.023200    0.126300   -0.011800
C     -1.335400   -0.514000    0.102600
C     -1.867000   -1.402500   -0.996300
C     -1.538800   -1.991900    0.350400
C     -0.383700   -2.972900    0.522100
C     -0.790500   -4.355200    0.284300
C     -1.145200   -5.487700    0.093800
H      0.721900    1.777000   -0.774100
H      0.733900   -0.558500   -0.500100
H      0.420100    0.344500    0.993300
H     -2.060800    0.138800    0.580600
H     -2.905600   -1.309200   -1.292200
H     -1.191400   -1.628700   -1.816000
H     -2.389100   -2.237100    0.980000
H      0.435500   -2.719700   -0.160600
H      0.029300   -2.889500    1.536500
H     -1.450900   -6.489600   -0.078600
