18
gdb_20890
C     -0.063600    1.558100   -0.205400
C     -0.048400    0.061000    0.106200
N     -1.372200   -0.535200    0.052900
C     -1.908600   -1.301500   -0.931500
C     -3.213500   -1.584200   -0.575100
C     -4.217700   -2.405200   -1.325400
C     -3.364300   -0.922300    0.665000
N     -2.254700   -0.289700    1.039700
H      0.946600    1.971200   -0.125800
H     -0.434700    1.743500   -1.217900
H     -0.712000    2.081200    0.501400
H      0.580800   -0.481400   -0.605500
H      0.352700   -0.114900    1.108600
H     -1.331300   -1.589900   -1.796700
H     -4.552900   -3.271200   -0.743200
H     -5.111500   -1.823400   -1.578000
H     -3.797500   -2.783200   -2.261800
H     -4.237600   -0.890100    1.301700
