19
gdb_20059
C     -0.156500    1.346700   -0.182800
C      1.271800    0.981900    0.018300
N      0.231300   -0.041600    0.051700
C     -0.097500   -0.586700    1.370800
C     -1.517800   -1.206100    1.393300
C     -1.402300   -2.498300    2.240600
C      0.081000   -2.781800    2.222500
C      0.783900   -1.755400    1.750300
H     -0.649000    1.883300    0.627300
H     -0.537300    1.571600   -1.174800
H      1.956000    0.934300   -0.824000
H      1.730000    1.278700    0.960900
H     -0.006800    0.207800    2.139600
H     -2.276400   -0.514700    1.768300
H     -1.777000   -1.459700    0.361300
H     -1.755400   -2.345000    3.270100
H     -1.999100   -3.323100    1.834600
H      0.502700   -3.711300    2.590300
H      1.863900   -1.710100    1.665500
