16
gdb_4178
C     -0.174700    1.603600    0.025400
C      0.068800    0.104800    0.025800
N      0.690900   -0.523700   -1.214500
C      2.068500   -0.030500   -1.297700
C      1.788900   -1.118100   -0.324200
C      1.143700   -0.550600    0.882600
N      1.340100   -0.778300    2.112700
O      0.402900   -0.076700    2.899800
H      0.743400    2.182100   -0.104600
H     -0.866600    1.869900   -0.780100
H     -0.619600    1.897400    0.979700
H     -0.878500   -0.416900    0.202500
H      2.562900   -0.318200   -2.220800
H      2.321500    0.963800   -0.941100
H      2.159100   -2.129600   -0.442900
H      0.647400   -0.344600    3.792000
