20
gdb_6917
C      0.075100    1.525300   -0.165100
C     -0.022200    0.021500    0.010600
C     -1.313800   -0.568600   -0.527000
C      1.233300   -0.809100   -0.121300
C      0.571900   -0.651300    1.234300
C      1.252600    0.097900    2.366400
C      2.242100   -0.789700    3.093700
O      2.258200   -0.975900    4.283100
H      1.028700    1.930200    0.182800
H     -0.021800    1.790400   -1.224300
H     -0.726300    2.040600    0.377600
H     -1.420600   -0.366100   -1.599300
H     -1.348300   -1.653500   -0.388000
H     -2.185800   -0.138400   -0.020300
H      1.176200   -1.772000   -0.618200
H      2.169000   -0.283100   -0.286800
H      0.014500   -1.519600    1.578900
H      1.818400    0.950700    1.968800
H      0.534400    0.482500    3.097400
H      2.981700   -1.287800    2.424400
