14
gdb_5495
N      0.067900    1.384800    0.165300
C      0.015100   -0.009300    0.051400
C     -1.094200   -0.823100    0.033600
N     -0.650000   -2.133700   -0.018400
C      0.706100   -2.172900   -0.030300
C      1.171200   -0.865700    0.007500
C      2.510600   -0.422400   -0.005400
C      3.636500    0.010700   -0.026700
H      0.965400    1.749400   -0.129500
H     -0.675700    1.859700   -0.328500
H     -2.145100   -0.588500    0.061900
H     -1.248500   -2.939500   -0.039600
H      1.251500   -3.100900   -0.072500
H      4.634500    0.371600   -0.030900
