16
gdb_18039
C      0.018000    1.540200   -0.182100
N      1.496300    1.528800    0.082100
C      1.407500    0.120900    0.574000
C      1.462200    0.068400    2.101800
O      0.579600   -0.931900    2.640300
C     -0.666800   -0.950300    2.109800
N     -1.066900   -0.498200    0.996000
C     -0.061200    0.013900    0.094200
H     -0.516000    2.142700    0.559500
H     -0.276600    1.873600   -1.181000
H      2.016300    1.571800   -0.787500
H      2.119300   -0.577800    0.126100
H      2.454600   -0.173700    2.486500
H      1.163300    1.045100    2.498900
H     -1.357800   -1.446600    2.789600
H     -0.140600   -0.545200   -0.843700
