20
gdb_13144
C      0.373000    1.351400    0.000000
O      0.176400   -0.041200    0.023900
C      0.722400   -0.654100    1.171800
C      0.441900   -2.145200    1.102000
C      1.285900   -2.898900    0.033800
C      2.282500   -3.328300    1.146900
C      1.191300   -2.980800    2.191400
O      1.545600   -2.399300    3.423800
H      1.443400    1.614500   -0.005200
H     -0.087200    1.732500   -0.914900
H     -0.094900    1.846200    0.866100
H      1.810100   -0.454300    1.219200
H      0.279400   -0.228700    2.087700
H     -0.640700   -2.289700    1.052300
H      0.748000   -3.749200   -0.391800
H      1.676600   -2.291000   -0.784000
H      2.670900   -4.349200    1.136900
H      3.132100   -2.639800    1.218700
H      0.603100   -3.866500    2.448500
H      2.202100   -1.715700    3.256400
