19
gdb_12094
C     -1.492900   -0.720800    1.835800
C     -0.547300   -0.559100    0.674600
O     -0.298200    0.777700    0.232500
C      0.803100    0.035800    0.762900
C      1.461000    0.559600    2.020500
C      1.499800    2.069200    2.136600
C      1.479700   -0.289000    3.244800
N      2.701600   -0.123500    2.436300
H     -1.266500   -0.012800    2.634900
H     -2.521500   -0.547700    1.502500
H     -1.441200   -1.737700    2.240000
H     -0.713000   -1.261100   -0.146300
H      1.522300   -0.258100   -0.008100
H      0.487500    2.480500    2.170100
H      2.041500    2.362700    3.038900
H      2.011100    2.509700    1.273900
H      1.514100    0.178300    4.225800
H      0.970300   -1.247700    3.219900
H      2.846900   -0.957000    1.868900
