17
gdb_11802
C     -0.091500    1.568800   -0.014700
C     -0.003000    0.050200    0.029700
C      1.126900   -0.590200   -0.826600
O      1.433100   -0.596100   -1.988800
N      1.685900   -1.161600    0.293200
C      0.716400   -0.615100    1.224300
C      1.010600   -0.061800    2.581100
C      0.149000   -1.309600    2.418500
H      0.874700    2.028800    0.213700
H     -0.394600    1.897100   -1.013100
H     -0.827100    1.946100    0.703400
H     -0.972200   -0.410600   -0.184500
H      2.508400   -1.732800    0.420100
H      2.010900   -0.189400    2.982600
H      0.527900    0.863900    2.877800
H     -0.916900   -1.228900    2.606400
H      0.581200   -2.260800    2.712800
