18
gdb_13661
C      0.171100    1.556200   -0.170700
C      0.052100    0.055700   -0.005500
C      1.289000   -0.814600    0.084700
C      0.369200   -0.646400    1.285900
N      0.741800    0.087300    2.466500
C      1.765700   -0.586900    3.257400
C      2.123000    0.201700    4.439700
N      2.423300    0.834500    5.358100
H      1.071200    1.957000    0.307500
H      0.236600    1.818400   -1.231700
H     -0.694900    2.078200    0.250300
H     -0.784400   -0.372500   -0.551200
H      1.312400   -1.765400   -0.436900
H      2.243900   -0.297100    0.114900
H     -0.256400   -1.504000    1.524900
H      1.036400    1.030100    2.244200
H      1.370600   -1.553600    3.594100
H      2.692300   -0.808900    2.698700
