12
gdb_10016
N      0.029400    1.406300    0.114200
C     -0.005800    0.049600    0.013800
N      1.055500   -0.708700    0.001900
H      1.966400   -0.262100    0.017100
C      1.130200   -2.122000   -0.014200
C      2.409600   -2.678000   -0.050700
N      3.501000   -3.086400   -0.079700
C     -0.074500   -2.822300   -0.008400
N     -1.137200   -3.303200   -0.002900
H      0.889200    1.899600   -0.074000
H     -0.804200    1.901600   -0.157500
H     -0.972300   -0.438700    0.005300
