13
gdb_1417
C      0.031600    1.838300   -0.061200
C     -0.078400    0.332300    0.167000
O     -1.486700    0.041100    0.333700
C     -1.803600   -1.100700    0.978500
O     -2.932500   -1.447600    1.148900
C      0.483500   -0.448800   -0.933600
C      0.949500   -1.089000   -1.836800
H      1.080500    2.122200   -0.173400
H     -0.509000    2.120600   -0.967100
H     -0.397400    2.371800    0.790100
H      0.442400    0.066000    1.097100
H     -0.916500   -1.660400    1.332400
H      1.358000   -1.659400   -2.634700
