16
gdb_17118
N      0.343900    0.987800    0.489100
C      0.097200   -0.130300   -0.016500
C     -1.089100   -1.068100   -0.027700
C     -0.193900   -1.934900   -0.946900
O      0.886800   -0.949500   -0.810800
C      0.209800   -3.302400   -0.468900
C      1.600500   -3.782700   -0.642200
N      1.078400   -3.465400    0.702700
H      1.284800    1.307200    0.253000
H     -1.321600   -1.511800    0.942200
H     -1.996500   -0.659500   -0.473800
H     -0.527700   -1.971500   -1.989100
H     -0.603900   -4.024700   -0.521100
H      1.792300   -4.835400   -0.826700
H      2.315000   -3.095100   -1.084800
H      1.440900   -2.554200    0.977800
