16
gdb_7130
O     -0.295500    1.425000   -0.500000
C     -0.007300    0.087400   -0.124700
C     -1.341400   -0.625900    0.036500
C     -1.207000   -2.074700    0.449100
O     -0.136600   -2.613900    0.622100
C     -2.506000   -2.864000    0.624600
C     -2.481300   -4.139200   -0.208000
O     -3.407500   -4.523900   -0.869900
H      0.538400    1.889300   -0.615900
H      0.596900   -0.430200   -0.883200
H      0.553000    0.038600    0.820000
H     -1.963600   -0.104000    0.776400
H     -1.913900   -0.579900   -0.900300
H     -2.544800   -3.173800    1.678000
H     -3.404000   -2.288500    0.392600
H     -1.520600   -4.691100   -0.152000
