21
gdb_15186
C     -0.158700    1.432600    0.043200
C     -0.105000   -0.091900    0.166800
C      0.862200   -0.554600    1.247500
O      0.843100   -1.965700    1.302600
C      1.717600   -2.500000    2.272100
C      1.659500   -4.001500    2.210000
C      1.849500   -4.790500    3.452400
N      0.528700   -4.725600    2.807000
H      0.822700    1.848500   -0.210600
H     -0.859800    1.738700   -0.738500
H     -0.483000    1.898700    0.980300
H     -1.099300   -0.491000    0.397500
H      0.197700   -0.541400   -0.785800
H      1.883200   -0.193400    1.030300
H      0.576000   -0.128900    2.226000
H      2.750400   -2.152700    2.091600
H      1.433700   -2.154800    3.283500
H      1.993300   -4.423800    1.264700
H      2.334200   -5.761500    3.410800
H      2.008700   -4.247600    4.381300
H     -0.071500   -4.070100    3.302800
