14
gdb_16109
C      0.000100   -1.238400   -0.218400
C      0.032300   -0.050800   -0.035100
C      0.077800    1.363900    0.145300
C      0.243300    2.336200   -1.023700
C      1.309900    2.231500    0.039300
O      1.275200    3.113500    1.125200
C     -0.052800    3.091700    1.619000
O     -0.629100    1.846000    1.270000
H     -0.028300   -2.289000   -0.369800
H      0.472900    1.888600   -1.983900
H     -0.399500    3.208200   -1.065800
H      2.303000    1.857900   -0.171300
H     -0.034600    3.191000    2.708400
H     -0.635000    3.916100    1.176900
