18
gdb_394
C     -0.004300    1.560200    0.083300
C     -0.008400    0.032700   -0.009900
C      0.711600   -0.500600   -1.255200
O      2.064400   -0.043500   -1.309900
C      0.633100   -2.028500   -1.368000
C      1.282600   -2.574900   -2.641500
H      1.018500    1.944200    0.048500
H     -0.552700    2.006000   -0.754000
H     -0.473000    1.903900    1.010300
H      0.470800   -0.398500    0.881900
H     -1.039200   -0.343800   -0.010600
H      0.247000   -0.057400   -2.147100
H      2.521400   -0.407000   -0.542500
H      1.115400   -2.469200   -0.482500
H     -0.420400   -2.331700   -1.320300
H      0.760400   -2.213800   -3.534500
H      2.322800   -2.246700   -2.713100
H      1.261300   -3.668600   -2.661600
