14
gdb_18547
O     -0.000100   -0.041800    0.071100
C     -0.070300    1.144600   -0.009600
C     -1.184400    2.205200   -0.096200
C     -0.044400    3.259200   -0.054700
C      0.289700    4.067700    1.224100
N      1.491300    3.432000    1.807100
C      1.773300    2.401700    1.119500
N      0.957400    2.150800   -0.013100
H     -1.802300    2.170500   -0.996000
H     -1.831100    2.193000    0.785400
H      0.042600    3.856800   -0.964000
H      0.504200    5.115100    0.995400
H     -0.511300    4.059400    1.973500
H      2.577400    1.713900    1.356500
