15
gdb_17753
O     -0.092500    1.367600    0.019200
C      0.061800   -0.006800    0.005200
C      1.046500   -0.826000    0.869000
N      0.841200   -1.951900   -0.112300
C     -0.636200   -2.216300   -0.072000
C     -0.948600   -1.490100   -1.346700
C     -1.251500   -0.823800   -0.012000
C      0.483100   -0.927900   -1.209300
H      0.778400    1.773600   -0.049400
H      2.081000   -0.470300    0.799200
H      0.793800   -1.052800    1.909100
H     -1.062700   -3.112100    0.360100
H     -1.578000   -1.749900   -2.185600
H     -2.199800   -0.579300    0.445500
H      1.219100   -0.706700   -1.980600
