15
gdb_20013
O      0.165000    0.220400   -0.543000
C      0.156900    1.348900   -0.117200
N      1.221200    1.959200    0.525500
C      2.603800    1.829700    0.138700
C      1.913800    3.169200    0.116900
C      1.582100    3.806900   -1.194000
C      0.978700    5.144400   -1.269900
O      2.368300    4.945600   -1.537600
H     -0.739400    1.998300   -0.127800
H      3.305900    1.602500    0.935400
H      2.805300    1.346200   -0.814200
H      2.126800    3.875800    0.916900
H      1.402000    3.109000   -2.014400
H      0.368300    5.411300   -2.130800
H      0.753700    5.684300   -0.351000
