17
gdb_16145
O     -0.479900    0.671500    0.716100
C      0.218300    0.982400   -0.218300
C      1.384900    1.894100   -0.119500
C      1.890100    2.353500    1.237600
C      2.760300    3.596100    0.937900
C      2.168300    4.204800   -0.354700
C      1.570000    3.024200   -1.104900
N      2.340500    1.798000   -1.245700
H      0.032000    0.607100   -1.248300
H      1.021400    2.605800    1.854200
H      2.439400    1.570700    1.770500
H      2.768700    4.308300    1.766000
H      3.803100    3.302900    0.777000
H      1.363900    4.912600   -0.122500
H      2.912100    4.747400   -0.948100
H      0.859000    3.210200   -1.905300
H      3.296100    1.906000   -0.913600
