21
gdb_1337
C     -0.047500    1.546100   -0.273500
C     -0.010800    0.094400    0.220400
C     -1.373900   -0.566700    0.166100
C     -1.877000   -1.236100   -1.096100
C     -1.599600   -2.065200    0.139600
C     -0.422200   -3.022700    0.126600
C     -2.796900   -2.592500    0.910100
H      0.943300    2.008800   -0.225000
H     -0.395800    1.598500   -1.310300
H     -0.728600    2.152100    0.334200
H      0.708200   -0.471300   -0.382200
H      0.370100    0.070500    1.250400
H     -2.131200   -0.014800    0.721600
H     -2.907100   -1.080100   -1.400400
H     -1.180500   -1.321200   -1.925600
H      0.412600   -2.652100   -0.473000
H     -0.048900   -3.206300    1.141500
H     -0.721500   -3.990900   -0.292500
H     -3.158200   -3.535500    0.481800
H     -2.540500   -2.783900    1.959300
H     -3.628200   -1.880500    0.895300
