15
gdb_18776
C     -0.041500    1.438700   -0.009700
C      0.063700   -0.048600    0.080300
C      0.985200   -0.931300   -0.688800
C      1.006200   -2.157600    0.256200
O      1.032000   -1.660400    1.614400
C     -0.211800   -1.004100    1.278500
C     -0.538200   -2.032700    0.167300
N     -0.497000   -0.988400   -0.955300
H      0.694800    1.919200    0.643800
H      0.139000    1.774100   -1.035300
H     -1.037900    1.784600    0.285000
H      1.696000   -0.595200   -1.433100
H      1.636600   -3.024900    0.074000
H     -0.814600   -0.699200    2.131700
H     -1.280800   -2.826900    0.179400
