12
gdb_2826
O      0.240000    0.159300    0.863200
C      0.193800    1.097700    0.108000
C      1.279400    2.116200   -0.032900
C      1.673300    2.870100    1.232800
N      2.551900    1.921300    0.623600
C      2.993200    0.750600    1.251100
O      3.368600    0.710800    2.392400
H     -0.689600    1.280400   -0.540900
H      1.301400    2.650300   -0.980500
H      1.945400    3.918000    1.147200
H      1.184700    2.571900    2.157000
H      3.054600   -0.095100    0.546000
