15
gdb_12440
O     -0.002100   -0.011100    0.371200
C     -0.047200    1.172000    0.126900
C     -1.354600    1.935800    0.055000
C     -1.487200    2.864800   -1.166900
N     -0.695500    4.086400   -1.082500
C      0.561400    4.006600   -1.073100
O      1.331700    2.875200   -1.125400
C      1.264600    1.947400   -0.038600
H     -2.161700    1.199000    0.069600
H     -1.443800    2.548300    0.962900
H     -1.223900    2.310500   -2.078400
H     -2.535700    3.159200   -1.258700
H      1.167300    4.913300   -1.088700
H      1.468100    2.470600    0.908700
H      2.060400    1.222300   -0.211000
