18
gdb_11139
O     -0.094100    1.143800    0.786200
C     -0.066600   -0.167800    0.261400
C     -1.451200   -0.592400   -0.192900
C     -1.726400   -2.094400   -0.408300
C     -2.733800   -1.942300    0.749300
C     -2.480400   -2.708500    2.034900
O     -3.238700   -2.166100    3.096600
O     -2.386600   -0.537900    0.922900
H     -0.794200    1.150200    1.450200
H      0.624900   -0.162700   -0.589100
H      0.313400   -0.892600    1.000600
H     -1.794500    0.064800   -1.001200
H     -2.150100   -2.366400   -1.374700
H     -0.877400   -2.747800   -0.188900
H     -3.788800   -2.034300    0.464000
H     -2.787400   -3.754300    1.917900
H     -1.400900   -2.697100    2.260200
H     -3.046600   -1.220500    3.105100
