15
gdb_2216
O      0.061900    1.434000    0.197000
C      0.014000    0.055200   -0.005500
C      0.371400   -0.507500   -1.411300
C     -0.994000   -1.269000   -1.447400
C     -1.328100   -0.727700   -0.038700
O     -0.874200   -1.608900    1.010000
C      0.364200   -0.878200    1.173800
H      0.941300    1.747300   -0.041600
H      0.434000    0.287700   -2.158300
H      1.276100   -1.118700   -1.465900
H     -1.667300   -0.911100   -2.230100
H     -0.939300   -2.358100   -1.490300
H     -2.313700   -0.301000    0.160300
H      1.247100   -1.522200    1.072200
H      0.397600   -0.349900    2.135100
