16
gdb_8628
C     -0.014900    1.508100    0.016600
C     -0.000800   -0.044500   -0.004500
C      0.751500   -0.544200    1.255600
O      0.769800   -1.953000    1.246400
C     -1.383700   -0.543700    0.010300
C     -2.529100   -0.903000    0.040000
C      0.692500   -0.508400   -1.215200
C      1.280700   -0.838100   -2.208900
H      1.008500    1.892900    0.006400
H     -0.539300    1.889400   -0.861000
H     -0.527600    1.866800    0.913200
H      1.766800   -0.120500    1.231300
H      0.229300   -0.146500    2.138900
H      1.238000   -2.255200    2.029700
H     -3.534800   -1.243500    0.056700
H      1.789700   -1.152800   -3.086100
