15
gdb_2167
O      0.404600    1.132600    0.598600
C     -0.067000   -0.057500    0.036000
C     -1.562300   -0.103100   -0.297500
C     -1.656100   -1.291700   -1.284800
C     -0.382700   -1.184200   -2.155000
C      0.582700   -0.353900   -1.315900
O      1.650300    0.103800   -1.643500
H      1.244100    1.317000    0.150100
H      0.165900   -0.923800    0.687500
H     -2.196400   -0.225600    0.582700
H     -1.842100    0.836900   -0.787700
H     -1.654800   -2.235400   -0.728900
H     -2.573000   -1.270100   -1.877000
H      0.059000   -2.145000   -2.434500
H     -0.561500   -0.639000   -3.088800
