13
gdb_21069
C     -0.025800    1.439400   -0.000000
N     -0.000400   -0.012300    0.003300
N      0.051900   -0.711400   -1.132700
C      0.076400   -1.973400   -0.711700
C      0.035200   -1.986400    0.695000
C      0.039500   -3.146500    1.595700
O      0.000700   -3.099900    2.800700
N     -0.012600   -0.709900    1.118000
H      0.912900    1.825700   -0.403800
H     -0.854500    1.786700   -0.619800
H     -0.155900    1.765700    1.030000
H      0.118000   -2.793500   -1.411400
H      0.082500   -4.117300    1.052800
