16
gdb_16107
C      0.020200   -1.198000   -0.082900
C      0.035300    0.004100   -0.028400
C      0.021000    1.430200    0.058700
C      0.332100    2.298700   -1.149900
C      1.281600    2.290900    0.011900
C      1.062400    3.368200    1.057900
O     -0.347200    3.418700    1.260000
C     -0.861600    2.102600    1.112800
H      0.012000   -2.258100   -0.137400
H      0.637900    1.779900   -2.050200
H     -0.288100    3.176200   -1.303000
H      2.257100    1.831500   -0.086300
H      1.593000    3.107100    1.987500
H      1.379500    4.368600    0.745600
H     -1.911900    2.190600    0.819500
H     -0.803000    1.533300    2.053200
