22
gdb_8424
C      0.502100    1.273000    0.033700
C     -0.072200   -0.155900   -0.000700
C     -1.605100   -0.050700   -0.071000
C      0.478500   -0.966900   -1.222300
C      1.515200   -1.945700   -0.694400
C      2.668200   -1.409300    0.118800
C      1.445500   -1.954100    0.816400
C      0.364000   -0.980700    1.257300
H      1.594000    1.288000    0.084300
H      0.207200    1.831000   -0.862300
H      0.125500    1.821100    0.904900
H     -1.923600    0.492700   -0.967900
H     -2.068200   -1.043000   -0.097900
H     -2.005200    0.482900    0.798800
H     -0.336500   -1.531900   -1.689800
H      0.878200   -0.299200   -1.995100
H      1.676400   -2.862700   -1.251300
H      3.565900   -2.017700    0.156900
H      2.866000   -0.343400    0.133900
H      1.555100   -2.877300    1.375600
H      0.690400   -0.321800    2.071000
H     -0.490400   -1.550500    1.641400
