15
gdb_11431
C     -0.166800    1.367900   -0.175100
O     -0.163200   -0.054500   -0.165200
C      0.711300   -0.623100   -1.076200
C      0.611100   -2.146900   -0.975600
O     -0.242900   -2.499700   -2.064000
C     -0.357300   -1.440300   -2.913500
N     -0.972900   -1.403700   -4.006800
O      0.323300   -0.368900   -2.426100
H      0.838300    1.765200    0.028000
H     -0.518000    1.757800   -1.136100
H     -0.845000    1.684700    0.618600
H      1.724900   -0.217500   -0.962300
H      1.583700   -2.634700   -1.096000
H      0.147700   -2.451000   -0.036400
H     -1.379400   -2.313800   -4.210000
