20
gdb_8210
C     -0.113200    1.506500   -0.017000
C      0.135800    0.023000   -0.017100
C      0.352800   -0.702100   -1.338400
C      0.750100   -2.137900   -0.928300
C      1.430300   -1.989300    0.451200
C      0.784700   -0.752200    1.060500
C      1.315100   -0.199800    2.355300
O     -0.650700   -0.762000    0.904800
H      0.703000    2.037100   -0.519200
H     -1.039700    1.736800   -0.554900
H     -0.211600    1.896500    0.998300
H     -0.536800   -0.676500   -1.976900
H      1.161500   -0.202600   -1.887400
H     -0.149700   -2.747700   -0.825200
H      1.395100   -2.622500   -1.665200
H      1.304600   -2.876200    1.081400
H      2.508900   -1.812200    0.350400
H      2.382700    0.030500    2.270600
H      0.784100    0.707100    2.651900
H      1.196600   -0.934800    3.159400
