13
gdb_4408
N      0.072100    1.314000    0.121800
C     -0.049700   -0.032800    0.042500
N     -1.203900   -0.614300    0.024400
C     -1.163500   -1.991200   -0.004100
C     -0.026500   -2.721900   -0.021800
C      1.249200   -2.054300   -0.012500
N      2.390500   -2.601800   -0.031800
O      1.155100   -0.638600    0.020200
H      0.959900    1.730200   -0.101400
H     -0.764600    1.849200   -0.037200
H     -2.135500   -2.475100   -0.013900
H     -0.022100   -3.802200   -0.045900
H      3.135100   -1.905500   -0.017400
