16
gdb_9313
C     -0.060600    1.456600   -0.064500
C      0.026700   -0.068900    0.034600
C      0.768800   -0.510200    1.284600
O      0.800500   -1.953700    1.290500
C      1.421400   -2.513900    2.340600
O      1.935800   -1.905400    3.245800
C      1.393600   -3.958900    2.245300
C      1.400900   -5.160000    2.219500
H      0.934600    1.912600   -0.100600
H     -0.596800    1.757100   -0.968800
H     -0.590300    1.883400    0.794000
H     -0.977800   -0.506600    0.045400
H      0.538000   -0.477600   -0.844300
H      1.797200   -0.133400    1.305400
H      0.275200   -0.163100    2.198700
H      1.407900   -6.222600    2.195900
