17
gdb_18585
O      0.608200    0.856300   -0.897800
C      0.148000   -0.228000   -0.138500
C      0.171500   -0.128800    1.408700
N     -1.219400   -0.653400    1.479800
C     -2.183200    0.223800    2.165800
C     -2.712700    1.134300    1.077400
C     -2.271700    0.752700   -0.122000
C     -1.388300   -0.460700    0.001500
H      0.121300    1.638400   -0.612800
H      0.670800   -1.107300   -0.520500
H      0.908000   -0.737700    1.942400
H      0.268200    0.914300    1.745600
H     -2.997500   -0.355100    2.626500
H     -1.687700    0.767100    2.981500
H     -3.396900    1.953300    1.270300
H     -2.540800    1.200300   -1.071700
H     -1.790100   -1.325800   -0.541700
