18
gdb_10829
C      0.005000    1.566800    0.014200
C      0.020100    0.040900    0.003400
C      0.720800   -0.507400   -1.248500
N      0.901600   -1.949100   -1.147400
C      0.934800   -2.688500    0.001300
O      1.179800   -3.881100    0.001500
C      0.589000   -1.932100    1.287300
N      0.633900   -0.472900    1.228700
H      1.025300    1.967500    0.039600
H     -0.487700    1.965200   -0.878100
H     -0.522900    1.930800    0.898500
H     -1.015600   -0.327000   -0.001600
H      0.129600   -0.283100   -2.144900
H      1.692000    0.000500   -1.368300
H      1.164300   -2.464400   -1.975600
H     -0.422800   -2.250200    1.574100
H      1.258100   -2.296900    2.070100
H      1.600200   -0.159200    1.271700
