12
gdb_2521
O      0.064900    1.356700   -0.145600
C     -0.089000   -0.039800   -0.211100
C     -1.553900   -0.474900    0.043500
C     -1.772100   -1.979700   -0.180800
O     -0.985400   -2.666300   -0.771200
C     -2.003200   -0.080600    1.377300
N     -2.320500    0.228600    2.445100
H     -0.024900    1.633100    0.773200
H      0.181300   -0.349400   -1.222000
H      0.570000   -0.571700    0.487600
H     -2.195200    0.044400   -0.684900
H     -2.722700   -2.382000    0.226000
