14
gdb_2135
C     -0.083100    1.574200    0.023000
C      0.035500    0.044300   -0.039800
C      0.862200   -0.514400   -1.173200
C      1.839100   -1.270000   -0.663100
N      1.777100   -1.301300    0.739000
C      0.742700   -0.514400    1.213800
O      0.475200   -0.310300    2.375600
H      0.904700    2.043700   -0.006600
H     -0.666500    1.954600   -0.820200
H     -0.575600    1.867300    0.954100
H     -0.977600   -0.382500   -0.048000
H      0.680700   -0.333600   -2.221900
H      2.613300   -1.828700   -1.169700
H      2.436200   -1.757100    1.347600
