19
gdb_11909
C      0.889100    1.269800   -0.230000
C     -0.105000    0.136700    0.028800
C     -0.137000   -0.927000   -1.083600
C      0.983100   -1.857200   -0.647000
C      1.424000   -3.044800   -1.405900
N      2.298000   -1.855600   -1.313800
C      0.978400   -1.768600    0.874700
O      0.243900   -0.591600    1.212400
H      1.886600    0.875600   -0.449300
H      0.565500    1.886600   -1.075800
H      0.962800    1.909200    0.653800
H     -1.099300    0.560800    0.208400
H     -1.097700   -1.453900   -1.070400
H      0.012100   -0.515700   -2.086200
H      1.793400   -3.922700   -0.881300
H      0.932700   -3.262200   -2.351500
H      2.246400   -1.330100   -2.183900
H      0.476300   -2.631100    1.333100
H      2.004100   -1.716600    1.258600
