14
gdb_21193
C     -0.050900    1.424800    0.123300
N     -0.060600   -0.012600   -0.084900
C     -1.192400   -0.746400   -0.042700
N     -1.280800   -2.052300   -0.005000
C     -2.642700   -2.223900   -0.028100
N     -3.194200   -3.480500   -0.067800
N     -3.370000   -1.129100   -0.058400
O     -2.361500   -0.106100   -0.073700
H      0.915500    1.818800   -0.197000
H     -0.831400    1.886700   -0.484400
H     -0.218700    1.705500    1.171400
H      0.779200   -0.535500    0.101400
H     -2.615900   -4.189900    0.355700
H     -4.163300   -3.522400    0.210200
