18
gdb_17412
O      0.005900    1.362500    0.150500
C     -0.012600   -0.035500    0.061600
C     -0.491700   -0.757000    1.289800
C     -1.334900   -0.751400    0.043900
C     -2.737900   -0.125300   -0.090200
C     -3.151000   -1.340000   -0.939400
C     -2.246400   -1.493100   -2.129800
C     -1.754400   -1.952400   -0.782800
H     -0.227200    1.716800   -0.714100
H      0.816700   -0.475500   -0.494600
H      0.011800   -1.675000    1.576500
H     -0.817200   -0.134900    2.117500
H     -3.263300   -0.070900    0.866600
H     -2.802900    0.853100   -0.580200
H     -4.112900   -1.834600   -0.888900
H     -2.518900   -2.284400   -2.821400
H     -1.805600   -0.619300   -2.605700
H     -1.477800   -2.981300   -0.584700
