16
gdb_5726
C      0.116900    1.438500   -0.330100
C      1.441900    1.976600    0.278800
N      2.126700    0.745200    0.630700
C      3.373900    0.350100    1.053300
C      3.245200   -0.998600    1.291900
N      1.959000   -1.434100    1.041100
C      1.323200   -0.353700    0.651100
C     -0.077300    0.014300    0.266000
H     -0.723100    2.104600   -0.124500
H      0.225400    1.368200   -1.415900
H      2.021200    2.571800   -0.432600
H      1.267600    2.590200    1.171500
H      4.207800    1.027700    1.127700
H      4.012400   -1.683000    1.622600
H     -0.732800    0.031600    1.145500
H     -0.519300   -0.682000   -0.450300
