18
gdb_20303
C      0.090400    1.446200   -0.052800
O      1.245900    0.607900   -0.041400
C     -0.046700   -0.016300   -0.068000
C     -0.434400   -0.776400    1.155500
C     -1.696000   -1.589000    1.306500
C     -2.065700   -2.327200    0.011300
C     -0.661400   -3.016900    0.021200
C     -0.322800   -2.271900    1.319300
H     -0.101500    1.991100    0.871400
H     -0.067900    2.019000   -0.966100
H     -0.281700   -0.480500   -1.024600
H     -0.170500   -0.244400    2.067200
H     -2.376700   -1.407000    2.130100
H     -2.871100   -3.048900    0.163000
H     -2.322300   -1.709500   -0.855100
H     -0.739800   -4.096100    0.166300
H     -0.002500   -2.835000   -0.833500
H      0.220600   -2.695300    2.155700
