16
gdb_13928
O      0.478500    0.096900   -0.426700
C      0.238900    1.209200   -0.079000
O     -0.953100    1.708300    0.387900
C     -0.377200    3.046500    0.558100
C      0.976100    2.541700    0.043200
C      2.316400    2.560300    0.824200
C      3.059700    2.611600   -0.537900
C      1.733800    3.068200   -1.204100
H     -0.895400    3.772700   -0.073100
H     -0.413300    3.351400    1.606800
H      2.424300    3.491900    1.387800
H      2.516000    1.716600    1.488100
H      3.920200    3.278000   -0.618200
H      3.349400    1.612800   -0.871200
H      1.465600    2.632200   -2.168600
H      1.660300    4.157800   -1.271600
