17
gdb_10895
C     -0.056800    1.596800    0.038900
C      0.047200    0.078800    0.003900
C      1.122200   -0.604300   -0.897300
O      1.280500   -0.664600   -2.081700
C      1.731300   -1.307200    0.292100
N      2.070500   -0.192800    1.255500
C      0.690200   -0.684400    1.189100
C     -0.026700   -1.267400    2.366600
H      0.884000    2.035200    0.379300
H     -0.276500    1.982500   -0.961400
H     -0.858100    1.926600    0.708700
H     -0.915400   -0.379200   -0.259900
H      2.248800   -2.257000    0.351000
H      2.526300   -0.649400    2.047300
H     -0.366900   -0.480000    3.048800
H     -0.906700   -1.835900    2.048400
H      0.626100   -1.940900    2.932500
