18
gdb_11986
C     -0.037600    1.557300   -0.038900
C     -0.001700    0.034800   -0.011600
C     -1.382100   -0.576700    0.222400
C      0.738700   -0.647500   -1.178400
O      2.108000   -0.215100   -1.142500
C      1.706100   -1.300200   -0.284500
C      1.096700   -0.623200    0.950600
O      1.946200    0.215900    1.680300
H      0.931400    1.971000   -0.328500
H     -0.784800    1.917000   -0.755300
H     -0.295000    1.955100    0.947900
H     -2.084700   -0.281400   -0.565100
H     -1.340800   -1.671800    0.237500
H     -1.794800   -0.243600    1.180700
H      0.351800   -0.973400   -2.138100
H      2.256700   -2.229500   -0.378500
H      0.641200   -1.320100    1.659000
H      2.478200    0.690900    1.029300
