12
gdb_6248
N     -0.208500    1.359900   -0.000600
C      0.138200    0.021100    0.076600
O      1.262300   -0.376800    0.234800
N     -1.005300   -0.807600    0.016100
C     -1.016300   -2.197000   -0.089500
O     -0.053900   -2.895800   -0.279400
C     -2.369300   -2.730400    0.038700
C     -3.472000   -3.199600    0.137100
H      0.592500    1.966900   -0.090400
H     -1.000800    1.624800   -0.566100
H     -1.904700   -0.373500    0.160200
H     -4.439000   -3.632600    0.225100
