19
gdb_2369
C     -0.240600    1.515600    0.076300
C      0.005000    0.014100   -0.091300
O      0.648100   -0.265000   -1.337100
C      0.774800   -0.564300    1.078700
C      0.059000   -1.148200    2.276600
C      0.838900   -2.049300    1.350100
C      0.146800   -3.069100    0.471100
H      0.710900    2.055800    0.158500
H     -0.783000    1.910900   -0.786800
H     -0.819100    1.721300    0.982500
H     -0.963500   -0.491100   -0.173400
H      1.536300    0.106000   -1.294300
H      1.686000   -0.009300    1.302100
H      0.442900   -0.941200    3.269700
H     -1.024800   -1.204400    2.225800
H      1.795700   -2.390600    1.738400
H     -0.853100   -2.740900    0.173800
H      0.715700   -3.253900   -0.445500
H      0.033200   -4.021000    1.001400
