17
gdb_3216
C     -0.128300    1.597000   -0.059800
C      0.036900    0.082900   -0.049400
C      0.716200   -0.610900   -1.239100
C      2.163100   -0.223400   -1.342500
C      1.763900   -1.242700   -0.312600
C      1.136300   -0.556400    0.891600
O      2.026400    0.309300    1.567900
H      0.823000    2.109200   -0.223400
H     -0.820800    1.906700   -0.850100
H     -0.537000    1.955400    0.892700
H     -0.928400   -0.389400    0.161800
H      0.192100   -1.077400   -2.064800
H      2.686800   -0.628700   -2.202300
H      2.511400    0.755800   -1.031100
H      2.163900   -2.249000   -0.315600
H      0.688300   -1.276200    1.589200
H      1.548800    0.723400    2.293800
