12
gdb_10012
C      0.078200    1.519800    0.151400
N      0.232100    0.079500    0.164300
C      0.553500   -0.557300   -0.872000
O      0.706000   -1.916000   -0.897300
C      0.033900   -2.677200    0.046400
O      0.259400   -3.836700    0.152600
C      0.841300    0.011500   -2.175400
N      1.061200    0.519200   -3.190200
H      0.744000    1.943600    0.909700
H      0.288200    1.989300   -0.817100
H     -0.945700    1.763400    0.453100
H     -0.693400   -2.085800    0.615900
