16
gdb_4546
C     -0.035000    1.446500    0.004800
N      0.061100    0.004900    0.002400
C      0.075600   -0.808000   -1.134100
C      0.100600   -2.116800   -0.718900
N      0.220500   -3.269800   -1.521600
C      0.081300   -2.119700    0.712500
C      0.051800   -0.798800    1.099200
O      0.011700   -0.208200    2.324200
H      0.689300    1.872200   -0.696500
H     -1.038000    1.788300   -0.279800
H      0.187300    1.816500    1.005900
H      0.085200   -0.371300   -2.119000
H     -0.044300   -3.091400   -2.482500
H     -0.346700   -4.033100   -1.172300
H      0.113500   -2.980900    1.362400
H      0.112100   -0.895600    2.988700
