22
gdb_6807
C      0.020900    1.396100   -0.024600
O      0.022300   -0.009300   -0.020400
C     -1.276400   -0.560700    0.005200
C     -1.163600   -2.078400    0.013400
C     -2.526700   -2.773800    0.053200
C     -2.427400   -4.303900   -0.022600
C     -3.793600   -4.980700    0.093300
O     -1.742500   -4.727600   -1.200200
H      1.062600    1.726400   -0.042700
H     -0.495600    1.804000   -0.908900
H     -0.466500    1.809300    0.873500
H     -1.823800   -0.207400    0.897800
H     -1.853500   -0.221800   -0.874300
H     -0.613000   -2.404400   -0.874200
H     -0.564600   -2.379300    0.881600
H     -3.065700   -2.499600    0.969900
H     -3.151900   -2.423900   -0.783100
H     -1.786600   -4.652900    0.797400
H     -4.462300   -4.645400   -0.709900
H     -3.687200   -6.066200    0.017300
H     -4.276200   -4.743400    1.047000
H     -2.292200   -4.490800   -1.955900
