14
gdb_8474
C     -0.075000    1.476600    0.073200
C      0.063100   -0.005600    0.069800
C      1.199900   -0.867000   -0.369400
C      0.622700   -1.002300    1.055200
O      1.349400   -0.797200    2.197500
C     -0.731800   -1.671900    0.936300
O     -1.343100   -2.550700    1.447500
O     -1.159300   -0.805300   -0.064800
H      0.878900    1.938600    0.342100
H     -0.367600    1.842900   -0.916000
H     -0.832300    1.789900    0.797200
H      1.047300   -1.639500   -1.116500
H      2.176100   -0.389100   -0.372200
H      1.962000   -1.532500    2.313600
