18
gdb_19820
C     -0.222100    1.589200   -0.022500
C      0.044500    0.090300    0.004500
C      1.164000   -0.504600   -0.919200
C      1.784500   -1.242900    0.304000
C      2.906100   -0.494700    1.067500
O      2.663300    0.910000    0.941000
C      1.919400    0.185100    1.929800
C      0.742300   -0.554500    1.244700
H      0.698900    2.155700    0.130700
H     -0.651700    1.889100   -0.985100
H     -0.935800    1.875400    0.758800
H     -0.894800   -0.445100   -0.173900
H      0.795000   -1.167900   -1.704800
H      1.822400    0.244000   -1.364000
H      1.881800   -2.327500    0.268500
H      3.932300   -0.795300    1.249700
H      1.990600    0.550800    2.948600
H      0.133300   -1.137900    1.937000
