16
gdb_16396
O      0.001400   -0.028500   -0.048100
C     -0.012400    1.183300    0.000600
C     -1.257400    1.993200    0.054700
C     -1.123200    3.326300    0.107000
C      0.266900    3.918000    0.108400
C      1.099200    3.207400   -1.006000
C      1.257200    2.035000    0.015000
C      1.134100    3.119700    1.133100
H     -2.209500    1.474900    0.049400
H     -1.983200    3.988200    0.148300
H      0.263000    5.007600    0.153100
H      0.601500    3.004500   -1.956800
H      2.055600    3.706400   -1.184300
H      2.138900    1.395500   -0.025600
H      2.096400    3.603800    1.320500
H      0.667400    2.839000    2.079900
