9
gdb_23822
F     -0.325800   -0.221000    0.097700
C     -0.216300    1.098300    0.189200
N     -1.473900    1.662600    0.027700
C     -1.741700    2.838000    0.288000
N     -2.175000    3.907200    0.632300
N      0.929200    4.686800   -0.810000
N      2.022100    4.661200   -0.916500
O      0.831500    1.637800    0.354600
H     -2.061300    4.775100    0.130700
