17
gdb_13610
C     -0.061600    1.521900    0.653300
O     -0.108100    0.220400    1.251400
C      0.788100   -0.658400    0.770100
O      1.581800   -0.397300   -0.102300
C      0.711400   -2.009300    1.408500
N      0.083100   -2.165800    2.730800
C     -0.548100   -2.812100    1.583600
C     -1.925200   -2.345600    1.180900
H     -0.261400    1.462600   -0.419700
H     -0.833000    2.105100    1.155900
H      0.920900    1.976900    0.801100
H      1.609100   -2.578400    1.183400
H      0.616100   -2.829900    3.285600
H     -0.388400   -3.885000    1.473100
H     -2.025400   -1.268800    1.317000
H     -2.125500   -2.593500    0.133100
H     -2.682400   -2.844400    1.795200
