12
gdb_10374
N     -0.226100   -1.246700   -0.138700
C     -0.135200   -0.097200   -0.079000
C     -0.008300    1.363000    0.054300
C     -0.201600    1.912100    1.506600
C      1.276200    2.330200    1.387100
O      1.362000    1.790500    0.038300
C     -0.812200    2.038800   -0.976600
N     -1.446400    2.604700   -1.758200
H     -0.926100    2.721500    1.576800
H     -0.425200    1.140700    2.241300
H      1.469700    3.406200    1.395500
H      1.971500    1.822700    2.061100
