14
gdb_19452
N     -0.098200   -1.157200   -0.117200
C     -0.034800   -0.005700   -0.034900
C     -0.005500    1.447300    0.020100
C      0.041600    2.087600    1.465100
N      1.482100    1.667900    1.471600
C      1.428400    2.113500    0.039800
C      1.024200    3.599400    0.129000
C      0.092700    3.582100    1.086500
H     -0.728100    1.873500   -0.675300
H     -0.603100    1.745200    2.272400
H      2.056900    2.289400    2.042100
H      2.223800    1.798000   -0.632900
H      1.395300    4.409100   -0.482100
H     -0.522500    4.373400    1.489000
