14
gdb_10677
C      0.108100    1.371600   -0.379200
C     -0.102200    0.113900    0.423700
O      0.650100   -0.239000    1.299800
C     -1.322300   -0.763100    0.121700
C     -1.170900   -2.220500    0.411200
O     -1.890600   -1.392700    1.285500
C     -2.368200   -0.427900   -0.897900
O     -2.244400    0.351800   -1.807200
H      1.025200    1.855000   -0.041300
H      0.156100    1.144300   -1.447400
H     -0.744400    2.048300   -0.257900
H     -1.756300   -2.940800   -0.159900
H     -0.191500   -2.538400    0.761700
H     -3.306700   -1.000000   -0.728400
