17
gdb_8575
C     -0.006100    1.440800    0.064500
C     -0.005800   -0.049800   -0.060600
N     -0.025300   -0.665900   -1.173700
C     -0.020200   -2.126200   -1.042600
C     -1.068900   -2.541000    0.034000
C      0.018300   -2.107800    1.047100
C      1.069000   -2.537200   -0.005400
O      0.017700   -0.670700    1.156100
H      0.884500    1.778000    0.604500
H     -0.025400    1.888900   -0.928200
H     -0.877200    1.774900    0.637400
H     -0.037500   -2.594700   -2.026100
H     -2.022200   -2.009100    0.047000
H     -1.229400   -3.620600    0.066500
H      0.037800   -2.491100    2.066700
H      1.234400   -3.616200    0.021100
H      2.020200   -2.001800   -0.027600
