18
gdb_16511
C      0.127500    1.462500    0.062900
C     -0.048700   -0.030500   -0.099300
C      0.811700   -0.767100   -1.150500
C      0.243000   -2.171600   -1.015400
C     -0.915500   -2.122100   -0.327000
C     -0.804200   -2.342200    1.188400
C     -0.663100   -0.773700    1.172200
C     -1.391200   -0.669600   -0.140700
H      1.115300    1.705000    0.471300
H      0.038700    1.967500   -0.906400
H     -0.624900    1.892600    0.730700
H      0.719200   -0.263700   -2.125300
H      1.883800   -0.798900   -0.916000
H      0.914200   -3.023800   -0.948800
H     -1.725400   -2.605200    1.722500
H      0.025200   -2.963600    1.538800
H     -0.847600   -0.160900    2.052000
H     -2.358900   -0.243100   -0.373600
