20
gdb_20075
C      0.354500    1.522200    0.112100
O      1.181400    0.415300   -0.251100
C     -0.202800    0.167100    0.014800
C     -0.530600   -0.671000    1.222600
C     -2.012800   -0.566700    1.661100
C     -2.358300   -1.925900    2.336800
C     -1.090000   -2.804900    2.193800
C     -0.321600   -2.183200    1.018600
H      0.553100    1.950100    1.094400
H      0.167500    2.247700   -0.678700
H     -0.783400   -0.073500   -0.879900
H      0.118100   -0.341700    2.044500
H     -2.180600    0.288100    2.321900
H     -2.647100   -0.408300    0.781000
H     -2.645700   -1.801000    3.384300
H     -3.210200   -2.394000    1.834500
H     -0.480800   -2.738100    3.102900
H     -1.323100   -3.862600    2.043500
H     -0.773000   -2.490400    0.065100
H      0.734600   -2.462900    0.985200
