16
gdb_9798
O     -0.370800    1.315400    0.043100
C     -0.018100   -0.060300    0.008700
C      0.775300   -0.393500   -1.181900
C      1.475300   -0.647600   -2.126800
C      0.721500   -0.523100    1.271900
O      0.997600   -1.893900    1.257300
C      1.681100    0.398700    1.978300
C      0.340800    0.039400    2.598900
H      0.402500    1.822600   -0.226200
H     -0.966700   -0.609400   -0.032200
H      2.066800   -0.872400   -2.980300
H      1.599900   -2.058300    0.520700
H      2.569100   -0.059900    2.397800
H      1.815000    1.412600    1.616900
H     -0.422500    0.807900    2.619900
H      0.340000   -0.652000    3.433400
