22
gdb_14740
C     -0.034000    1.603300   -0.014300
C     -0.001700    0.072500   -0.003700
C      0.725700   -0.507100    1.214400
C      0.760900   -2.037800    1.229500
C      1.495800   -2.605100    2.461200
C      1.536000   -4.063500    2.488000
C      1.553800   -5.267700    2.483200
C      1.583500   -6.723700    2.489100
H      0.979100    2.020700   -0.023200
H     -0.559200    1.986700   -0.894700
H     -0.543100    1.994700    0.873600
H     -1.028300   -0.316400   -0.030200
H      0.482400   -0.290700   -0.920000
H      1.753500   -0.117800    1.241700
H      0.241800   -0.143700    2.132200
H     -0.261000   -2.435800    1.211700
H      1.250800   -2.409900    0.321500
H      2.519900   -2.207400    2.485000
H      1.010200   -2.232900    3.373900
H      2.114100   -7.108400    3.367500
H      0.571900   -7.144800    2.505300
H      2.089900   -7.117500    1.600400
