13
gdb_3307
N     -0.089600   -1.170200   -0.164200
C     -0.037000   -0.021300   -0.052000
C      0.043900    1.437800    0.066600
N     -0.142000    1.972000    1.461500
C      1.109700    2.753200    1.306100
C      2.245700    1.790500    1.201200
C      1.427400    2.102000   -0.030700
H     -0.655900    1.884800   -0.646400
H     -0.959700    2.572100    1.488800
H      1.193100    3.779200    1.641000
H      3.237900    2.229400    1.189700
H      2.171100    0.822700    1.688500
H      1.854100    2.487700   -0.946300
