10
gdb_1034
O     -0.061600   -0.028800   -0.000500
C      0.011500    1.174800    0.008300
C      1.259200    1.947400    0.000900
C      1.379400    3.305500    0.010300
O      2.696700    3.617400   -0.001200
C      3.325600    2.406200   -0.017800
N      2.538700    1.389400   -0.017300
H     -0.899600    1.814500    0.023100
H      0.682900    4.127000    0.024300
H      4.404000    2.428100   -0.029200
