12
gdb_3380
N      0.042600   -1.153500    0.006500
C      0.044100    0.003100    0.015800
C      0.043600    1.439700    0.042600
C      0.444000    2.237900    1.284000
C      1.631200    1.556300    1.957300
O      2.376500    1.551800    0.702400
C      1.324700    2.251600    0.065500
H     -0.760800    1.903300   -0.521100
H     -0.209700    2.983400    1.714300
H      2.133000    2.194100    2.690900
H      1.484200    0.549100    2.358200
H      1.570200    2.998700   -0.680000
