15
gdb_4111
O     -0.121000    1.268600   -0.270900
N     -0.012900   -0.127100   -0.183900
C     -1.140200   -0.671800    0.012100
C     -2.518600   -0.070300    0.103900
O     -3.394200   -1.181600    0.255700
C     -2.759700   -2.321200   -0.316400
C     -1.277000   -2.179000    0.070200
O     -0.416400   -2.882100   -0.790100
H      0.789300    1.542300   -0.428100
H     -2.640100    0.602600    0.958600
H     -2.736600    0.505300   -0.809800
H     -3.243000   -3.211900    0.088500
H     -2.839400   -2.331700   -1.414600
H     -1.145200   -2.509700    1.114200
H      0.388300   -2.356100   -0.872900
