16
gdb_9369
O     -0.020700    1.394200   -0.075800
C     -0.057100   -0.017700   -0.049300
C     -1.473000   -0.556700    0.032900
O     -2.143000   -0.127200   -1.176700
C     -3.411600   -0.523300   -1.327900
O     -4.016200   -1.214700   -0.543300
C     -4.031900   -0.009900   -2.614900
O     -5.348600   -0.461500   -2.744600
H     -0.532300    1.673900   -0.842600
H      0.448900   -0.455600   -0.923800
H      0.491300   -0.332600    0.844400
H     -1.493600   -1.649100    0.090900
H     -2.005600   -0.146300    0.895300
H     -3.982000    1.089800   -2.605000
H     -3.407500   -0.345400   -3.456600
H     -5.526300   -0.983700   -1.948300
