17
gdb_6625
C     -0.020300    1.493300   -0.006100
C     -0.001600    0.037600    0.029400
C      0.030200   -1.165900    0.060700
C      0.039100   -2.624000    0.096800
C     -1.371900   -3.222500   -0.022000
C     -1.352200   -4.746800    0.076100
N     -2.539700   -5.350800   -0.225900
O     -0.363400   -5.379000    0.393600
H      0.567700    1.880100   -0.846000
H     -1.040800    1.877700   -0.114400
H      0.396500    1.920900    0.912700
H      0.665700   -3.021200   -0.710100
H      0.496600   -2.986200    1.023500
H     -2.011900   -2.828200    0.777000
H     -1.839100   -2.917100   -0.965200
H     -3.376000   -4.826100   -0.412200
H     -2.611500   -6.347200   -0.101000
