14
gdb_10811
N      0.043400    1.352600    0.395600
C     -0.087400    0.019800    0.092700
N     -1.195400   -0.597100    0.166000
C     -1.231900   -1.980200   -0.265600
C      0.077000   -2.744700   -0.151400
O      0.165000   -3.946800   -0.193700
C      1.311800   -1.877700    0.067700
O      1.125600   -0.502900   -0.264300
H      0.881700    1.796800    0.058000
H     -0.805000    1.889600    0.313500
H     -1.993100   -2.532600    0.296700
H     -1.544900   -2.045100   -1.320700
H      1.604500   -1.968500    1.123800
H      2.135400   -2.247900   -0.546100
