15
gdb_4002
C     -0.190100    1.266000   -0.438800
C     -0.033600   -0.159800   -0.207500
C      0.096800   -1.343200   -0.016500
C      0.225000   -2.739800    0.204300
C     -0.980300   -3.648800    0.063800
O     -2.112300   -2.885200   -0.290700
N      1.390100   -3.188400    0.522800
O      1.347500   -4.577400    0.704700
H      0.748700    1.802100   -0.262900
H     -0.502500    1.466600   -1.469800
H     -0.949800    1.692600    0.225800
H     -0.738800   -4.416400   -0.687900
H     -1.114700   -4.181500    1.018100
H     -2.857100   -3.487600   -0.372100
H      2.260500   -4.779700    0.933800
