13
gdb_1311
C     -0.128500    1.579800    0.064900
C     -0.036300    0.063800   -0.023200
O     -1.294700   -0.567300    0.052400
C      0.820900   -0.534700   -1.155800
O      1.789100   -1.040300   -0.176700
C      1.045500   -0.582000    0.878100
O      1.252500   -0.715000    2.041200
H      0.852800    2.048500   -0.056300
H     -0.801600    1.957100   -0.710400
H     -0.521300    1.876400    1.043100
H     -1.669800   -0.379900    0.920800
H      0.340900   -1.355300   -1.690100
H      1.295000    0.169300   -1.841600
