11
gdb_4639
O     -0.014600   -0.060700   -0.000100
C     -0.034800    1.152400    0.010200
C      1.169900    1.959000    0.002600
C      1.344600    3.298900    0.011300
O      2.663800    3.602700   -0.001700
C      3.401800    2.397100   -0.019800
O      4.594400    2.353700   -0.034200
N      2.451400    1.410500   -0.016700
H     -0.980000    1.731000    0.025600
H      0.643300    4.116700    0.026000
H      2.653900    0.425000   -0.027000
