16
gdb_13261
O      0.102100    0.206000   -0.660600
C      0.196300    1.389500   -0.543300
O      0.998400    1.969900    0.370800
C      1.049000    3.400400    0.430000
C      2.467700    3.877000    0.180200
C      2.935800    3.835900   -1.290700
O      2.856500    5.272900   -1.398700
C      2.602700    5.407600    0.013100
H     -0.354900    2.127500   -1.159200
H      0.361100    3.834100   -0.308800
H      0.708300    3.697400    1.427900
H      3.145400    3.416500    0.901000
H      3.958800    3.468700   -1.437900
H      2.272900    3.330000   -2.003800
H      1.704400    6.004600    0.217500
H      3.452100    5.853800    0.545400
