14
gdb_2786
C     -0.023500    1.340300    0.239900
O     -0.055200    0.039000   -0.327700
C     -1.284900   -0.595800   -0.155100
C     -1.291700   -2.070300   -0.640700
N     -1.669200   -2.448800    0.726100
C     -1.576100   -1.189500    1.264900
O     -1.662700   -0.762100    2.385600
H      0.975800    1.740200    0.056100
H     -0.766400    1.998500   -0.236400
H     -0.216800    1.312300    1.318300
H     -2.118200    0.010400   -0.541600
H     -2.032900   -2.324900   -1.403400
H     -0.297800   -2.409300   -0.945800
H     -1.774800   -3.352100    1.163900
