15
gdb_21965
O     -0.073900    1.404400    0.010500
C      0.031700   -0.007200    0.001800
C     -1.401100   -0.541000    0.012300
N     -1.433800   -1.991100    0.004800
N     -1.415900   -2.691800   -1.124600
C     -1.380400   -3.958800   -0.706500
C     -1.371600   -3.966200    0.694400
N     -1.401800   -2.703900    1.126400
H      0.812800    1.775700    0.002400
H      0.548200   -0.378800   -0.895600
H      0.564900   -0.388500    0.885100
H     -1.919500   -0.199400    0.909500
H     -1.936200   -0.189400   -0.871100
H     -1.371000   -4.775800   -1.409900
H     -1.353400   -4.790800    1.388900
