15
gdb_11177
O      0.043900   -0.016700    0.005100
C     -0.028600    1.188200    0.067700
C     -1.294300    2.049600    0.110500
C     -0.793800    3.454800    0.469100
C      0.687100    3.463800   -0.019400
N      1.042100    2.054300    0.105400
C      0.843700    3.972800   -1.386300
C      0.979800    4.388100   -2.506000
H     -1.749300    2.016300   -0.885400
H     -2.016700    1.637400    0.816400
H     -1.368100    4.262500    0.015300
H     -0.798900    3.595700    1.553300
H      1.305200    4.070500    0.652000
H      1.960600    1.715000   -0.137300
H      1.100300    4.752100   -3.496700
