19
gdb_17274
C     -0.093100    1.441600   -0.366300
C      0.266900   -0.006500   -0.114500
C      1.662200   -0.415600    0.218300
N      0.598100   -0.532000    1.211200
C      0.632900    0.357600    2.364100
C      1.272800   -0.362700    3.530100
C      2.677500   -0.151800    3.898900
O      1.621000    0.448000    4.652000
H      0.566800    2.135900    0.159300
H     -0.018800    1.660900   -1.436600
H     -1.123400    1.652700   -0.058600
H     -0.331900   -0.708600   -0.694100
H      2.081400   -1.348100   -0.150700
H      2.388900    0.387100    0.346600
H      1.174700    1.302200    2.196700
H     -0.399500    0.616300    2.630900
H      0.814100   -1.319200    3.781400
H      3.229500   -0.938400    4.411300
H      3.287200    0.540900    3.319400
