10
gdb_21771
O     -0.059100   -0.038900    0.003300
C     -0.042200    1.155400    0.009300
N     -1.086000    2.066900    0.028700
C     -0.553400    3.333500    0.028500
N      0.746800    3.308700    0.011100
O      1.087600    1.944600   -0.001000
C     -1.329700    4.513200    0.045600
C     -2.021700    5.495500    0.060500
H     -2.058700    1.813400    0.040600
H     -2.620900    6.373600    0.073600
