19
gdb_1293
C     -0.032900    1.546200   -0.024700
C     -0.006100    0.017400   -0.002200
O      0.672600   -0.499900   -1.145900
C      0.721500   -0.532600    1.224300
C      0.682600   -2.060100    1.317500
C      1.451300   -2.595500    2.517200
O      1.330500   -4.010800    2.522000
H      0.986400    1.945600   -0.028300
H     -0.545600    1.914900   -0.920900
H     -0.562100    1.945600    0.846900
H     -1.044900   -0.355800    0.014200
H      0.207800   -0.195300   -1.931200
H      1.762600   -0.185000    1.184000
H      0.273000   -0.088000    2.121900
H     -0.356200   -2.406700    1.389300
H      1.098400   -2.494200    0.403700
H      2.507600   -2.286300    2.449400
H      1.046600   -2.160100    3.446700
H      1.831500   -4.351900    3.268300
