15
gdb_20220
C      0.011100    1.542000    0.151000
O      1.190600    2.210000   -0.267500
C      2.249200    1.349800   -0.551500
C      2.152800    0.190400   -1.498600
C      2.412900   -0.038100   -0.008700
N      1.121000   -0.815800    0.167900
C     -0.003800    0.075600   -0.203800
C      0.813600   -0.530900   -1.279000
H     -0.104900    1.644200    1.242300
H     -0.839600    2.048800   -0.321000
H      3.173000    1.915600   -0.621400
H      2.792500    0.041600   -2.358400
H      3.284500   -0.394900    0.526600
H     -0.958800   -0.406200   -0.004300
H      0.446400   -1.316200   -1.931700
