19
gdb_14774
C      0.137400    1.375400    0.214800
C      0.153900   -0.134900    0.054400
O      0.632000   -0.447700   -1.240700
C      0.697800   -1.835500   -1.501400
C      1.287400   -2.014100   -2.892200
N      2.600500   -1.402800   -2.979900
C      3.698200   -2.053700   -3.442300
O      3.714600   -3.190700   -3.866800
H      1.144000    1.786600    0.095400
H     -0.512100    1.834500   -0.535800
H     -0.232000    1.648400    1.207600
H      0.799100   -0.600500    0.818100
H     -0.858100   -0.550400    0.191700
H      1.331100   -2.338200   -0.752300
H     -0.305000   -2.290700   -1.455800
H      1.405500   -3.072900   -3.131400
H      0.608400   -1.568800   -3.630700
H      2.693800   -0.468600   -2.613700
H      4.603100   -1.415700   -3.390900
