13
gdb_1502
O     -0.155800    1.453100    0.011400
C      0.028500    0.045900    0.002000
C     -1.358200   -0.581400    0.011900
C     -1.324900   -2.095000    0.003400
O     -0.296200   -2.737800   -0.010100
C     -2.626000   -2.746400    0.012600
C     -3.710400   -3.268700    0.020100
H      0.712100    1.866800    0.005700
H      0.578500   -0.289200   -0.888800
H      0.595400   -0.298700    0.878500
H     -1.923000   -0.246400    0.891600
H     -1.939600   -0.237000   -0.853200
H     -4.660300   -3.746000    0.025800
