15
gdb_2913
O     -0.048100   -0.018100    0.038900
C      0.086400    1.177400    0.041200
C      1.405900    1.910500    0.012000
C      1.504000    2.867700   -1.206100
C      2.108600    4.137100   -0.590900
O      1.546600    4.203100    0.707900
C      1.543700    2.884900    1.225900
H     -0.798200    1.859200    0.071700
H      2.206100    1.168000    0.010200
H      2.099900    2.445900   -2.017800
H      0.505300    3.090300   -1.598100
H      3.207600    4.061600   -0.543500
H      1.845600    5.056400   -1.119800
H      0.716300    2.810100    1.939800
H      2.478000    2.667700    1.763400
