13
gdb_4745
N     -0.026300    1.408300    0.149400
C     -0.032100    0.022800    0.047900
C     -1.126200   -0.837100    0.022000
N     -0.585200   -2.092600   -0.010900
C      0.775900   -1.964200    0.000500
C      1.635100   -3.141700   -0.028900
O      2.843200   -3.138800   -0.023000
N      1.126300   -0.681700    0.032500
H      0.876300    1.792200   -0.097100
H     -0.771600    1.870600   -0.351600
H     -2.189000   -0.663900    0.032000
H     -1.098800   -2.958700   -0.038700
H      1.056400   -4.097100   -0.059600
