17
gdb_16901
O      0.020800    1.432100    0.128700
C      0.042100    0.014200    0.006500
C     -1.423400   -0.432200    0.031100
N     -1.573200   -1.875000   -0.226400
C     -2.157000   -2.253500   -1.514800
C     -0.698900   -2.443600   -1.258500
C      0.331300   -1.572500   -1.876800
C      0.698400   -0.441000   -1.277700
H      0.924600    1.735500    0.258100
H      0.569200   -0.431900    0.866600
H     -1.861600   -0.208400    1.009000
H     -1.950300    0.178500   -0.713600
H     -2.834300   -3.104000   -1.497300
H     -2.440700   -1.452600   -2.195100
H     -0.363000   -3.456300   -1.031700
H      0.802700   -1.910700   -2.796100
H      1.471800    0.198900   -1.695700
