18
gdb_4132
C      0.953800    1.058800   -0.764000
C      0.056200    0.101900   -0.017500
N      0.624300   -1.166900    0.448500
C      0.137400   -0.200800    1.449800
C      1.118000    0.386100    2.408400
C      2.598500    0.347100    2.155100
N      0.578300    0.880200    3.460600
O      1.533800    1.437000    4.324800
H      1.971100    1.052400   -0.371300
H      1.002400    0.785100   -1.823700
H      0.563500    2.080100   -0.698900
H     -0.959900    0.062400   -0.411300
H     -0.032600   -1.934100    0.342700
H     -0.820400   -0.395100    1.926300
H      2.829300   -0.369700    1.367300
H      2.972900    1.336300    1.867400
H      3.120000    0.072300    3.075600
H      0.990900    1.718400    5.068500
