17
gdb_15064
O      0.028300    1.392100    0.136300
C     -0.048400   -0.013500    0.149100
C     -1.492600   -0.539100   -0.052200
C     -2.004900   -0.035400   -1.333000
N     -2.355600    0.384900   -2.351600
C     -1.567400   -2.055900    0.021600
C     -1.673700   -2.727800    1.368100
C     -2.847300   -2.741100    0.421600
H     -0.196800    1.698000   -0.750000
H      0.608500   -0.472200   -0.605200
H      0.295400   -0.338700    1.134800
H     -2.113800   -0.103500    0.740400
H     -0.964500   -2.561000   -0.727500
H     -1.121400   -3.647100    1.525400
H     -1.741000   -2.095600    2.247700
H     -3.701400   -2.117900    0.664100
H     -3.103300   -3.669800   -0.074900
