17
gdb_14992
O      0.053500    1.399100    0.094100
C      0.065500    0.000400   -0.063700
C     -1.358700   -0.570000   -0.015700
C     -1.410700   -2.095400   -0.126600
C     -2.812800   -2.567000    0.239300
O     -3.207500   -2.075400    1.532300
C     -2.753600   -0.847300    1.862700
N     -1.962200   -0.088700    1.232100
H     -0.552700    1.558300    0.831600
H      0.527700   -0.219500   -1.032800
H      0.670000   -0.493200    0.717000
H     -1.915500   -0.115800   -0.847300
H     -1.157800   -2.434000   -1.136600
H     -0.685400   -2.543400    0.563400
H     -3.546200   -2.215200   -0.497100
H     -2.884500   -3.655000    0.304300
H     -3.172200   -0.544900    2.821100
