15
gdb_9942
N      0.007600    1.404200    0.169500
C      0.029100   -0.032600    0.061800
C     -0.444700   -0.743000    1.294100
O     -0.820900    0.039600    2.363500
C     -1.352100   -0.731700    0.039800
N     -2.493600    0.144000    0.090200
C     -1.466900   -1.957700   -0.701000
N     -1.561400   -2.939100   -1.309600
H      0.701100    1.827400   -0.433300
H     -0.917700    1.742500   -0.092500
H      0.824500   -0.471200   -0.530200
H     -0.020300   -1.703200    1.569900
H     -0.519600    0.939400    2.135500
H     -3.082400    0.028800   -0.725600
H     -3.045000   -0.030800    0.924100
