18
gdb_18029
C      0.002300    1.555100   -0.072400
C      1.566700    1.493100    0.048600
C      1.370900    0.094000    0.590600
C      1.835100   -0.671800    1.566700
C      0.992900   -1.832200    2.042000
O     -0.235500   -1.989000    1.346700
C     -0.903300   -0.771700    1.025700
C     -0.033600   -0.003900    0.038700
H     -0.446600    2.033200    0.802500
H     -0.412100    2.002700   -0.978200
H      2.044200    1.507600   -0.937700
H      2.065100    2.226700    0.687600
H      2.751600   -0.459300    2.111300
H      1.518900   -2.787900    1.923900
H      0.803500   -1.708300    3.124500
H     -1.876200   -1.066100    0.621600
H     -1.072300   -0.164500    1.930300
H     -0.075600   -0.469900   -0.952500
