18
gdb_18133
C     -0.105400    1.499000   -0.193400
C      0.061500    0.007900    0.011400
C      1.327500   -0.778300   -0.195500
C      2.560700   -0.010400    0.295800
C      1.942700    0.021100    1.744800
C      1.824400    1.279700    2.461500
C      1.746500    2.316100    3.067800
C      0.682600   -0.683600    1.196100
H      0.748800    2.073700    0.167500
H     -0.242100    1.724400   -1.257200
H     -0.988100    1.864800    0.341900
H     -0.802400   -0.558400   -0.335700
H      1.367900   -1.632400   -0.860900
H      3.482200   -0.594200    0.264400
H      2.746800    0.961300   -0.168600
H      2.497200   -0.684700    2.371500
H      1.667300    3.231900    3.599300
H      0.144200   -1.440600    1.754600
