14
gdb_4392
C     -0.018400    1.464400    0.094000
C     -0.006700   -0.020400   -0.065400
N     -0.045600   -0.597000   -1.208800
C     -0.028800   -1.986700   -1.199000
C      0.024900   -2.721900   -0.072600
C      0.068400   -2.060400    1.212100
N      0.119900   -2.639200    2.336900
O      0.048400   -0.655400    1.131800
H      0.880500    1.795300    0.624100
H     -0.063400    1.934700   -0.887100
H     -0.879900    1.773900    0.694600
H     -0.062300   -2.451900   -2.178700
H      0.037600   -3.803300   -0.073500
H      0.142200   -1.960400    3.098000
