17
gdb_6110
C      0.012600    1.504100    0.015500
C     -0.036300   -0.019900    0.035600
C     -1.429700   -0.565700   -0.256700
N      1.026500   -0.654100   -0.791300
C      1.788600   -1.086100    0.257300
O      2.900900   -1.538700    0.359200
C      0.699200   -0.668700    1.270600
O      1.125300    0.196800    2.288400
H      1.012900    1.867900    0.256600
H     -0.274100    1.883800   -0.971500
H     -0.682200    1.917300    0.752300
H     -1.773600   -0.251900   -1.248400
H     -1.436700   -1.659100   -0.226300
H     -2.149800   -0.193000    0.478600
H      1.263500   -0.539000   -1.767400
H      0.138200   -1.520000    1.679000
H      2.056700    0.006000    2.451200
