12
gdb_9033
O     -0.090700    1.438200    0.025000
C      0.035600    0.024300   -0.007600
C      0.690500   -0.457300   -1.231400
C      1.238900   -0.816300   -2.237500
C      0.727400   -0.505800    1.178100
C      1.290700   -0.929100    2.158300
C      1.974000   -1.401400    3.337400
O      1.977100   -2.551800    3.708000
H      0.793800    1.812900   -0.063000
H     -0.998100   -0.345800    0.009800
H      1.716300   -1.142800   -3.128900
H      2.511800   -0.608600    3.895400
