14
gdb_457
C     -0.055700    1.490000    0.042300
C      0.011600   -0.001300   -0.019100
C     -0.048400   -0.806500   -1.076200
C      0.062400   -2.240600   -0.647800
O      0.194100   -2.197100    0.772200
C      0.169800   -0.847600    1.219900
H      0.851300    1.909300    0.495600
H     -0.172500    1.927700   -0.952000
H     -0.896700    1.823500    0.663200
H     -0.160700   -0.503900   -2.110600
H     -0.824300   -2.835200   -0.921500
H      0.936000   -2.748700   -1.087400
H      1.099900   -0.614100    1.764900
H     -0.660900   -0.700700    1.930500
