18
gdb_11636
C     -0.150000    1.580200   -0.002800
C      0.026300    0.071400    0.008200
C      1.195000   -0.647400   -0.740900
C      2.164500   -0.160700    0.373800
C      0.878400   -0.649500    1.123100
C      0.908900   -1.882500    0.159200
C      0.631100   -0.646200    2.536000
C      0.412700   -0.632200    3.719500
H      0.785400    2.130800    0.121600
H     -0.600300    1.901600   -0.948500
H     -0.825000    1.887200    0.803400
H     -0.944100   -0.414700   -0.145900
H      1.380800   -0.651500   -1.814900
H      3.060900   -0.764500    0.536100
H      2.397300    0.902900    0.425600
H     -0.042400   -2.399400    0.008200
H      1.733400   -2.583600    0.308800
H      0.222000   -0.623100    4.763900
