16
gdb_6262
C     -0.033800    1.513600   -0.042900
C      0.010700   -0.009200    0.016400
C      0.606500   -0.553400    1.305500
O     -1.347000   -0.537900   -0.047900
C     -1.889100   -0.666400   -1.267800
O     -1.352600   -0.377000   -2.309900
C     -3.227700   -1.213400   -1.177700
C     -4.341700   -1.662900   -1.162400
H      0.980500    1.918200    0.028100
H     -0.470600    1.849300   -0.985700
H     -0.623900    1.914200    0.787300
H      0.549700   -0.394900   -0.853300
H      0.044600   -0.196600    2.174000
H      0.591600   -1.646400    1.310100
H      1.643900   -0.221000    1.405800
H     -5.327100   -2.060800   -1.148900
