17
gdb_8800
C     -0.033800    1.544300    0.027700
C      0.123800    0.027200    0.005400
C      0.683400   -0.501100   -1.291000
O      0.985700    0.193200   -2.237200
C      0.863000   -2.036700   -1.364700
O      0.567600   -2.760700   -0.428300
N      1.366900   -2.432000   -2.552900
C      1.631900   -3.815500   -2.882500
H      0.927500    2.041700   -0.126700
H     -0.705000    1.881500   -0.766800
H     -0.442100    1.873400    0.986800
H      0.774500   -0.335800    0.811500
H     -0.826300   -0.492900    0.184500
H      1.553200   -1.691600   -3.214300
H      1.043900   -4.136700   -3.749200
H      2.693200   -3.974700   -3.103000
H      1.352500   -4.419800   -2.018000
