18
gdb_9766
C     -0.090700    1.569300    0.281900
C     -0.017000    0.075100   -0.004500
C     -1.399200   -0.545600   -0.264000
O     -1.335800   -1.952500   -0.346100
O      0.849300   -0.133100   -1.113200
C      1.737300   -1.194900   -0.794800
C      1.856800   -1.071000    0.721800
O      0.553900   -0.639100    1.102000
H      0.912600    1.959900    0.466200
H     -0.514000    2.097900   -0.577300
H     -0.714500    1.761600    1.158300
H     -2.094300   -0.214500    0.523900
H     -1.772400   -0.179900   -1.224800
H     -0.912000   -2.234800    0.473700
H      1.311800   -2.162800   -1.087500
H      2.679700   -1.032400   -1.324400
H      2.075900   -2.012400    1.232500
H      2.612700   -0.325300    1.005700
