14
gdb_4996
C     -0.023500    1.516900    0.004900
C     -0.006000    0.018800   -0.020300
C     -0.056300   -0.725800   -1.160900
N     -0.042600   -2.099400   -1.222900
C      0.024400   -2.709900   -0.083900
N      0.079400   -2.072700    1.112500
C      0.069700   -0.669800    1.260200
O      0.121500   -0.162500    2.366000
H      0.874100    1.907200    0.496400
H     -0.080900    1.929000   -1.005500
H     -0.875200    1.885300    0.586800
H     -0.113300   -0.228300   -2.126200
H      0.040300   -3.796300   -0.047300
H      0.131500   -2.597800    1.976000
