21
gdb_7281
C      0.044000    1.519400    0.065300
C     -0.062400   -0.013100    0.048400
C      0.496500   -0.595200    1.354200
C     -1.515000   -0.486700   -0.206200
C     -2.129500    0.073500   -1.495800
N     -1.592700   -1.947600   -0.228000
C     -2.301600   -2.683500    0.668200
O     -2.924600   -2.240500    1.610600
H      1.064600    1.827200    0.313300
H     -0.208700    1.968000   -0.898800
H     -0.622200    1.948800    0.823200
H      0.553500   -0.385400   -0.785500
H      0.474400   -1.687500    1.354100
H      1.533300   -0.277900    1.504200
H     -0.087700   -0.251500    2.215200
H     -2.133600   -0.189500    0.646600
H     -1.517500   -0.183100   -2.369700
H     -3.129100   -0.342700   -1.647300
H     -2.219400    1.161400   -1.459400
H     -1.136100   -2.438100   -0.982100
H     -2.245800   -3.767400    0.440100
