13
gdb_4406
N      0.044800    1.398900    0.177200
C     -0.034700    0.024600    0.056500
C     -1.204700   -0.698100    0.020600
N     -1.200600   -2.054500   -0.018800
C     -0.074000   -2.707300   -0.041000
C      1.238700   -2.075900   -0.016100
O      2.329200   -2.617100   -0.028000
N      1.138900   -0.668100    0.035900
H      0.807100    1.842700   -0.317000
H     -0.830900    1.876600    0.020800
H     -2.164900   -0.195600    0.024800
H     -0.091200   -3.792600   -0.076000
H      2.024700   -0.184400    0.111000
