19
gdb_14753
C      0.074700    1.483100    0.008700
C     -0.025100   -0.044300    0.001700
C     -1.467500   -0.529500    0.013300
O     -1.471900   -1.946200    0.005800
C     -2.762000   -2.499700    0.015700
C     -2.590000   -4.024000    0.005600
C     -3.871000   -4.722900    0.014700
N     -4.894200   -5.259400    0.022100
H      1.119200    1.806800    0.000200
H     -0.415300    1.920000   -0.868300
H     -0.397900    1.910600    0.899800
H      0.473000   -0.454500   -0.884200
H      0.490300   -0.463800    0.873100
H     -1.993900   -0.154000    0.907400
H     -2.011400   -0.144600   -0.866200
H     -3.324800   -2.189500    0.910600
H     -3.342600   -2.179800   -0.864300
H     -2.021400   -4.318100   -0.882700
H     -2.003600   -4.327800    0.879000
