15
gdb_19181
C      0.022100    1.481500   -0.174200
N      0.020100    0.026800    0.004400
C     -1.142400   -0.523100    0.790900
C     -0.769900   -1.982200    0.865300
C      0.555600   -1.956200    1.091600
C      0.875800   -0.483600    1.135600
C     -0.331400   -0.001600    2.066000
O     -0.509500    0.658100    3.032800
H      0.985900    1.777100   -0.598500
H     -0.756900    1.743000   -0.896100
H     -0.146500    2.063900    0.746100
H     -2.148600   -0.204800    0.527800
H     -1.452700   -2.817400    0.824300
H      1.244500   -2.764500    1.284900
H      1.899500   -0.125500    1.219100
