12
gdb_511
C     -0.040800    1.555500    0.049100
C      0.014100    0.017100   -0.019500
C      0.690900   -0.479100   -1.208300
C      1.256600   -0.877000   -2.201700
C      1.892000   -1.324400   -3.318900
C      2.455200   -1.723400   -4.310100
H      0.966300    1.980200    0.057200
H     -0.574100    1.964000   -0.813100
H     -0.558200    1.872800    0.959000
H      0.521400   -0.374100    0.872100
H     -1.005000   -0.390200    0.009700
H      2.950700   -2.072600   -5.181400
