18
gdb_16898
O     -0.168300    1.462400   -0.148800
C      0.022200    0.056300   -0.014500
C     -1.375500   -0.564000    0.106300
C     -1.346800   -2.088600    0.013600
C     -1.774500   -2.775900   -1.262600
C     -0.306800   -2.715500   -0.885200
C      0.618500   -1.791800   -1.588100
C      0.772900   -0.528300   -1.192400
H      0.697800    1.881800   -0.156400
H      0.588300   -0.154000    0.910200
H     -1.834600   -0.242700    1.045900
H     -1.978500   -0.134800   -0.700700
H     -1.564600   -2.616800    0.936100
H     -2.280200   -3.733400   -1.194000
H     -2.107700   -2.145100   -2.080400
H      0.131500   -3.656000   -0.560700
H      1.175400   -2.177600   -2.439200
H      1.457000    0.139300   -1.712500
