13
gdb_1235
C      0.051300    1.558900   -0.020900
C      0.039300    0.022800   -0.026000
O      0.812700   -0.517600    1.040800
C     -1.329300   -0.502100   -0.021100
C     -2.463400   -0.924100    0.019700
C     -3.738100   -1.398200    0.062800
C     -4.869400   -1.818500    0.102300
H      1.086400    1.909900   -0.024800
H     -0.466500    1.956300   -0.898400
H     -0.449500    1.943000    0.873500
H      0.543900   -0.329700   -0.934200
H      0.344700   -0.332800    1.863000
H     -5.864000   -2.188400    0.135200
