14
gdb_13656
C     -0.107400    1.511400   -0.108800
C     -0.021100    0.018800    0.055200
O      1.250200   -0.593200   -0.123900
C      0.673100   -0.642000    1.191800
C      1.316500    0.109900    2.229200
C      1.837300    0.713100    3.138300
C      2.487400    1.452700    4.189100
O      2.224700    1.343900    5.364800
H      0.720900    2.010600    0.397900
H     -0.075600    1.772300   -1.171400
H     -1.050700    1.884800    0.302700
H     -0.846300   -0.551200   -0.376300
H      0.326800   -1.630900    1.490300
H      3.270400    2.151000    3.830300
