14
gdb_3713
C      0.022200    1.557400    0.183800
C     -0.034400    0.045200   -0.094800
C     -1.426800   -0.487100   -0.152200
C     -2.179400   -1.053800   -1.135800
C     -3.422500   -1.311400   -0.500000
N     -3.426700   -0.935800    0.754400
O     -2.154700   -0.409900    0.978600
H      1.060400    1.897300    0.234000
H     -0.485200    2.119900   -0.605500
H     -0.463700    1.794500    1.133500
H      0.456500   -0.185600   -1.044900
H      0.518200   -0.490300    0.686800
H     -1.891400   -1.257200   -2.153600
H     -4.315000   -1.759300   -0.914200
