20
gdb_10759
C      0.093400    1.533200    0.289300
C     -0.020000    0.028100    0.027600
O      0.356500   -0.693800    1.217600
C     -1.493900   -0.376900   -0.166600
O     -2.271500   -0.104000    0.980600
C      0.807600   -0.488500   -1.139500
C      0.944500    0.232500   -2.457000
C      2.138200    0.102600   -1.545400
H      1.102100    1.804900    0.617700
H     -0.143200    2.122700   -0.601300
H     -0.613700    1.807300    1.074400
H      1.269800   -0.469600    1.423000
H     -1.928400    0.188000   -0.996700
H     -1.529400   -1.446300   -0.427800
H     -1.776800   -0.481000    1.719000
H      0.749700   -1.571500   -1.209700
H      0.916800   -0.360300   -3.364500
H      0.497400    1.214800   -2.559900
H      2.484400    1.001300   -1.047000
H      2.932700   -0.580200   -1.825500
