16
gdb_12212
C     -0.584800    1.387800    0.133700
C      0.010800   -0.003400   -0.038400
C      0.994400   -0.232800   -1.235100
N      2.031300   -0.572800   -0.243400
C      3.345200   -0.933000   -0.334400
O      4.053500   -1.157500    0.622700
C      1.186800   -0.354700    0.874200
N      1.337700   -0.405700    2.120800
H      0.189800    2.159200    0.075800
H     -1.333400    1.593700   -0.637800
H     -1.066400    1.471000    1.111600
H     -0.771200   -0.766800    0.002400
H      0.741000   -1.055600   -1.908600
H      1.224800    0.665500   -1.815700
H      3.693800   -0.999000   -1.383900
H      2.294300   -0.673300    2.358500
