13
gdb_3742
C     -0.068900    1.418800    0.068100
N      0.019500   -0.021900   -0.022800
C      0.134000   -0.772900   -1.153900
C      0.121700   -2.090300   -0.740500
O      0.223800   -3.169900   -1.564700
C     -0.007500   -2.032200    0.662000
N     -0.071500   -0.768100    1.086900
H      0.729600    1.887400   -0.514400
H     -1.035700    1.783300   -0.296300
H      0.042300    1.686400    1.118500
H      0.216400   -0.335100   -2.134700
H      0.191400   -3.968000   -1.029300
H     -0.049300   -2.846500    1.371400
