16
gdb_19072
C     -0.084100    1.560500    0.066600
C      1.456800    1.469700    0.003000
C      2.094600    1.266900    1.387000
C      1.410400    0.115500    2.112800
O      0.048800    0.301500    2.523300
C      0.310700   -0.552900    1.401400
C      0.045500    0.027400    0.011700
O      1.342000    0.168500   -0.648500
H     -0.550800    2.006800    0.942500
H     -0.502300    1.958400   -0.858700
H      2.009200    2.187600   -0.608600
H      3.151800    1.011000    1.254400
H      2.049600    2.187900    1.980700
H      2.011600   -0.444300    2.827000
H      0.096200   -1.606300    1.568200
H     -0.656600   -0.561500   -0.582100
