13
gdb_370
C     -0.034200    1.571200    0.007500
C      0.053100    0.033900   -0.016800
C      0.745600   -0.492000   -1.287100
O     -0.052400   -0.086700   -2.383100
C      0.745200   -0.479400    1.168000
N      1.304700   -0.880700    2.096200
H      0.965700    2.014000    0.037700
H     -0.542000    1.912500   -0.895800
H     -0.588100    1.916800    0.883200
H     -0.963000   -0.380100   -0.011700
H      1.762700   -0.075500   -1.343800
H      0.832300   -1.586400   -1.229200
H      0.387200   -0.354000   -3.195300
