22
gdb_15939
C      0.080300    1.570200   -0.094900
C      0.125600    0.037100   -0.070300
C      0.662500   -0.520200    1.234200
C      2.180700   -0.329000    1.530400
C      2.329600   -1.856100    1.805200
C      0.817900   -2.063100    1.532400
C     -0.092100   -1.912100    2.778000
C     -0.235600   -0.384900    2.500900
H      1.078900    1.998000    0.044800
H     -0.310800    1.941200   -1.047200
H     -0.560600    1.960100    0.703300
H     -0.882700   -0.361900   -0.246800
H      0.746900   -0.324200   -0.901300
H      2.750500    0.010200    0.660000
H      2.417000    0.336100    2.366400
H      2.978700   -2.361800    1.085800
H      2.662500   -2.133400    2.810200
H      0.546200   -2.837200    0.811500
H     -1.037600   -2.454700    2.699200
H      0.373600   -2.186300    3.729600
H      0.145500    0.283600    3.278700
H     -1.261900   -0.082700    2.271600
