15
gdb_3337
C     -0.019600    1.488700   -0.106100
C      1.392900    2.079800    0.086300
C      2.111100    1.477600    1.273200
O      1.335300    1.199300    2.434900
C      1.808900    0.082000    1.641000
C      0.800900   -0.657600    0.842100
C     -0.038600   -0.011900    0.030000
H     -0.689700    1.922300    0.646500
H     -0.415800    1.790400   -1.081200
H      2.006100    1.884200   -0.803500
H      1.329800    3.168400    0.193000
H      3.110600    1.865100    1.477000
H      2.573000   -0.507000    2.144100
H      0.772900   -1.738600    0.938100
H     -0.780300   -0.565300   -0.539400
