18
gdb_15383
C     -0.162600    1.516600    0.032400
C     -0.155100   -0.000600   -0.167800
C      1.060800   -0.489300   -0.967800
C      1.052600   -1.984300   -1.157900
O      0.110500   -2.519200   -2.088500
C      1.508400   -2.655900   -2.397100
C      2.016700   -1.931300   -3.531200
C      2.469800   -1.357900   -4.485900
H      0.728200    1.850100    0.576800
H     -0.177500    2.041800   -0.929000
H     -1.040300    1.838200    0.601200
H     -0.173900   -0.501200    0.809300
H     -1.066000   -0.313700   -0.691100
H      1.086400   -0.003900   -1.948900
H      1.987300   -0.209500   -0.448000
H      1.136500   -2.572400   -0.240400
H      1.878900   -3.677300   -2.309200
H      2.862100   -0.847500   -5.330700
