18
gdb_11381
C      0.015300    1.602100    0.091600
C      0.022800    0.072000    0.032800
C      0.664400   -0.511200   -1.243300
C      0.742400   -2.053900   -1.254700
C      0.060400   -2.505400   -2.556500
O     -0.043800   -3.644400   -2.948200
C     -0.436000   -1.278200   -3.222200
C     -0.103600   -0.195800   -2.510000
H      1.030400    2.006300    0.008300
H     -0.583900    2.040700   -0.712800
H     -0.404400    1.953500    1.038900
H      0.574000   -0.319400    0.896500
H     -1.001700   -0.311700    0.121900
H      1.671100   -0.077000   -1.329800
H      1.765600   -2.438400   -1.221900
H      0.211000   -2.499200   -0.406800
H     -0.979300   -1.304500   -4.158300
H     -0.342600    0.825100   -2.789400
