12
gdb_5144
N     -0.072600   -1.106500    0.417800
C     -0.020800    0.019800    0.169100
C      0.035400    1.450600   -0.142100
C      1.427900    1.998700   -0.156300
N      2.027600    2.596500   -1.133600
C      3.277500    2.924000   -0.619200
C      3.355100    2.492100    0.660100
O      2.165700    1.894300    0.973800
H     -0.396100    1.627700   -1.130400
H     -0.579500    1.988500    0.589800
H      4.017500    3.439600   -1.209400
H      4.101600    2.512700    1.434800
