16
gdb_6873
C     -0.085800    1.587000    0.068600
C     -0.022700    0.081400   -0.033600
O     -1.140100   -0.584000    0.478100
C      0.574300   -0.610900   -1.201600
N      1.054500    0.092700   -2.347100
C      1.318800   -0.665700    0.173300
C      2.535300    0.065100    0.316000
N      3.511600    0.686000    0.386200
H      0.828600    2.070100   -0.281700
H     -0.931600    1.963000   -0.513800
H     -0.224300    1.887100    1.113700
H     -1.234600   -0.340800    1.406900
H      0.093500   -1.551600   -1.449400
H      1.529400    0.952300   -2.092500
H      1.731400   -0.474000   -2.848800
H      1.253900   -1.598700    0.721800
