15
gdb_2661
C      0.012900    1.450300   -0.456000
C     -0.003100    0.127900    0.332300
C     -1.332300   -0.466400    0.430400
C     -2.442900   -0.925500    0.511800
C     -3.759900   -1.542200    0.580800
C     -3.843500   -2.825400   -0.248600
O     -4.454400   -3.801400    0.091500
H      1.028700    1.853700   -0.502300
H     -0.344300    1.298000   -1.478100
H     -0.632200    2.193900    0.019500
H      0.680000   -0.589700   -0.139900
H      0.391900    0.297000    1.342200
H     -4.061000   -1.778800    1.606700
H     -4.522100   -0.857900    0.176000
H     -3.295400   -2.778700   -1.214800
