17
gdb_1783
C     -0.119700    1.619700    0.068500
C     -0.072900    0.104800    0.035400
C     -1.333100   -0.568300   -0.476900
O     -1.580300   -0.337700   -1.857300
C      1.250300   -0.568100   -0.283300
C      0.685900   -0.619400    1.115900
O      1.260700    0.154900    2.129800
H      0.769400    2.028200    0.551400
H     -0.176300    2.035200   -0.944600
H     -0.992500    1.973400    0.630700
H     -1.245600   -1.655200   -0.376000
H     -2.193400   -0.252100    0.135900
H     -1.761200    0.600100   -1.972000
H      1.245500   -1.469000   -0.887900
H      2.107200    0.079700   -0.437900
H      0.274400   -1.570100    1.458000
H      2.120900   -0.223600    2.338100
