19
gdb_13560
C     -0.026200    1.412100   -0.299300
C      0.100800   -0.053300    0.156600
C      0.811000   -0.113000    1.495600
O      1.875000   -0.637900    1.697600
C     -1.275300   -0.690500    0.282000
N     -1.947400   -1.061100   -0.973600
C     -1.580300   -2.118500   -0.012500
C     -0.562900   -3.140800   -0.459300
H      0.956400    1.867700   -0.451500
H     -0.579900    1.451100   -1.241000
H     -0.568100    2.013300    0.440200
H      0.706900   -0.609500   -0.561700
H      0.260100    0.397300    2.323700
H     -1.894300   -0.226000    1.051500
H     -2.940800   -0.852900   -0.924500
H     -2.394900   -2.538100    0.577800
H      0.191900   -2.695500   -1.110300
H     -0.057600   -3.591400    0.401400
H     -1.053800   -3.942200   -1.021600
