14
gdb_4886
C      0.081300    1.360000    0.325700
N     -0.107900    0.143200   -0.474500
C     -1.193300   -0.662100   -0.147800
C     -1.298800   -1.934100    0.269300
O     -2.639700   -2.295000    0.339600
C     -3.404000   -1.211800   -0.026600
O     -4.602800   -1.203300   -0.084000
N     -2.504500   -0.196000   -0.294400
H      0.936700    1.911200   -0.071500
H     -0.799200    2.001500    0.235300
H      0.247500    1.158800    1.393900
H      0.739700   -0.407800   -0.514300
H     -0.574300   -2.683300    0.532200
H     -2.781700    0.649500   -0.761900
