16
gdb_14933
O     -0.087200   -0.030900    0.031200
C     -0.018500    1.177400    0.038800
C      1.242200    1.938300    0.039500
C      1.206900    3.277700    0.015900
C      2.453400    4.110100    0.021800
O      3.626200    3.371100    0.276600
C      3.668200    2.137600   -0.429700
C      2.555400    1.198900    0.037900
H     -0.936200    1.808700    0.043900
H      0.256000    3.806300   -0.022600
H      2.525400    4.652000   -0.941200
H      2.392800    4.877200    0.803900
H      3.578200    2.317000   -1.513700
H      4.657400    1.714700   -0.238200
H      2.774400    0.821400    1.044100
H      2.483400    0.319600   -0.611000
