18
gdb_1175
C      0.126300    1.558700    0.009200
C     -0.012700    0.033600    0.002300
C     -1.473900   -0.507300    0.013400
C     -2.232200   -0.080700    1.290500
C     -2.256500   -0.067100   -1.244300
C     -1.386000   -1.978700    0.004600
N     -1.312100   -3.132500   -0.001900
H      1.186000    1.830900    0.000900
H     -0.334500    2.019700   -0.869200
H     -0.318100    2.010100    0.900900
H      0.491300   -0.373800   -0.881300
H      0.508100   -0.383300    0.871600
H     -2.364200    1.004200    1.306500
H     -3.222300   -0.542900    1.324500
H     -1.686700   -0.377800    2.190600
H     -1.728400   -0.354300   -2.157800
H     -3.247000   -0.529100   -1.264300
H     -2.388900    1.017900   -1.246000
