17
gdb_2108
C     -0.026400    1.537900    0.010600
C      0.017300    0.009900    0.002300
C      0.725400   -0.541300   -1.242500
O      0.840300   -1.956300   -1.180500
C      1.512500   -2.356500   -0.016900
O      0.850600   -1.968800    1.156700
C      0.736300   -0.554500    1.234800
H      0.982900    1.965900    0.008400
H     -0.552600    1.923500   -0.868700
H     -0.544700    1.914100    0.898700
H     -1.004200   -0.389600    0.004700
H      0.170200   -0.311800   -2.156500
H      1.728600   -0.086200   -1.330500
H      1.544000   -3.447800   -0.022900
H      2.540900   -1.942400   -0.019200
H      1.740300   -0.100400    1.318900
H      0.189100   -0.334900    2.156100
