16
gdb_10029
C      0.015400    1.445700   -0.024000
C     -0.003300   -0.009300    0.011600
C     -0.008600   -1.213100    0.057700
C     -0.035300   -2.670400    0.054600
C     -1.486500   -3.201500   -0.063100
O     -1.533700   -4.606800   -0.187700
C      0.791000   -3.194700   -1.125400
O      1.748800   -3.908700   -1.015100
H      0.862600    1.815900   -0.611500
H     -0.900700    1.845000   -0.472400
H      0.102600    1.864400    0.984400
H      0.425600   -3.070700    0.966900
H     -2.069200   -2.831900    0.792100
H     -1.945200   -2.799200   -0.971700
H     -1.160700   -4.998000    0.609300
H      0.423100   -2.845000   -2.115600
