17
gdb_6694
C      0.047300    1.565700    0.041900
C      0.029300    0.033400    0.036000
C      0.737400   -0.543200    1.267100
C     -1.419900   -0.518100   -0.036900
C     -2.129700   -0.148400   -1.249000
C     -2.703500    0.159200   -2.267700
C     -3.355400    0.505300   -3.415800
N     -3.909800    0.800400   -4.393400
H      1.075300    1.940100    0.053300
H     -0.452000    1.976600   -0.840100
H     -0.460100    1.959100    0.930900
H      0.553300   -0.316300   -0.862300
H      0.235600   -0.231600    2.190900
H      0.755500   -1.637900    1.247300
H      1.772200   -0.191600    1.318000
H     -1.399600   -1.613200    0.036200
H     -1.988800   -0.162100    0.833300
