14
gdb_11162
N     -0.246700    1.029700    0.633700
C     -0.123100   -0.129100    0.158700
C     -1.170900   -0.865300   -0.651300
C     -0.692700   -2.334600   -0.607200
C      0.834900   -2.145100   -0.423600
O      0.988300   -0.921500    0.294200
C     -1.286700   -3.079900    0.503200
N     -1.754100   -3.676100    1.375700
H      0.602400    1.316800    1.122900
H     -2.169800   -0.706200   -0.248400
H     -1.156800   -0.499200   -1.682700
H     -0.911900   -2.871600   -1.533300
H      1.306600   -2.944000    0.149900
H      1.323900   -2.064300   -1.402000
