16
gdb_12590
C      0.105700    1.488500    0.058100
C      0.014100   -0.000200   -0.001700
C     -0.060400   -0.782000   -1.085700
C     -0.112700   -2.257500   -0.765700
C      0.217000   -2.243300    0.725400
O      0.722000   -3.114400    1.386300
C     -0.048700   -0.829500    1.263400
O      0.877700   -0.462300    2.258100
H      0.981200    1.789400    0.643600
H      0.180100    1.927700   -0.940200
H     -0.769400    1.918700    0.561700
H     -0.081900   -0.411300   -2.104900
H     -1.105900   -2.701200   -0.928200
H      0.601400   -2.876500   -1.319600
H     -1.077400   -0.802400    1.674600
H      1.207300   -1.293600    2.628900
