13
gdb_5342
C      0.024700   -1.193100   -0.003600
C     -0.016500    0.009500    0.003200
C     -0.023100    1.440400    0.010900
N     -1.220300    2.054000    0.030100
C     -1.227800    3.385700    0.037300
C     -0.077400    4.172700    0.026100
C      1.157100    3.532300    0.006300
C      1.189700    2.144600   -0.001500
H      0.042900   -2.254800   -0.009300
H     -2.209900    3.852900    0.052800
H     -0.153400    5.254100    0.032900
H      2.080000    4.102700   -0.002900
H      2.125800    1.599600   -0.016900
