20
gdb_18027
C      0.008600    1.568200   -0.056600
C      1.572000    1.477200    0.031000
C      1.363200    0.090200    0.603300
C      1.874000   -0.665900    1.565200
C      1.089500   -1.835100    2.116700
C     -0.263800   -2.062700    1.404000
C     -0.973900   -0.746800    1.021800
C     -0.052500    0.010700    0.072100
H     -0.410700    2.059400    0.825700
H     -0.419100    2.017700   -0.955900
H      2.028700    1.466500   -0.965500
H      2.097600    2.212400    0.646100
H      2.826200   -0.427300    2.034700
H      1.684700   -2.757100    2.072500
H      0.917300   -1.657200    3.189100
H     -0.094200   -2.640600    0.486300
H     -0.909700   -2.677100    2.040200
H     -1.953300   -0.955300    0.576700
H     -1.148700   -0.144100    1.922700
H     -0.085300   -0.439000   -0.930000
