13
gdb_4000
O     -0.285000    1.719000    0.052600
N      0.101500    0.489600    0.555100
C     -0.801500   -0.415800    0.402000
C     -0.462300   -1.802700    0.892500
C     -0.230500   -2.780000   -0.254900
O     -0.688000   -3.889500   -0.301200
C     -2.066500   -0.206100   -0.215600
C     -3.149000   -0.090300   -0.729300
H      0.475900    2.276100    0.253700
H      0.473600   -1.734400    1.460200
H     -1.246900   -2.206000    1.537900
H      0.430400   -2.385700   -1.059300
H     -4.100800    0.026500   -1.187100
