16
gdb_6271
C     -0.173800    1.497100   -0.114400
C      0.038900   -0.006100    0.023000
C     -1.248800   -0.813000   -0.011100
O      0.840500   -0.483700   -1.101400
C      2.158300   -0.360100   -1.002500
O      2.778600    0.111900   -0.079800
C      2.891500   -0.906100   -2.235400
O      2.355100   -1.366600   -3.202800
H      0.780200    2.027800   -0.081000
H     -0.679700    1.729400   -1.056500
H     -0.795300    1.859900    0.709900
H      0.607200   -0.216400    0.933500
H     -1.796100   -0.631000   -0.940900
H     -1.039600   -1.883200    0.062500
H     -1.888600   -0.526500    0.828700
H      3.990400   -0.815600   -2.119600
