17
gdb_5920
C      0.054500    1.577700    0.007100
C      0.049900    0.032100    0.032300
C      0.829000   -0.493700    1.259500
N     -1.342600   -0.474400    0.055600
C     -2.251600   -0.224500    1.031300
O     -2.067200    0.446500    2.027200
C      0.660400   -0.483800   -1.198500
C      1.157200   -0.907800   -2.207100
H      1.082700    1.945900   -0.035100
H     -0.483100    1.945000   -0.870400
H     -0.429700    1.954300    0.909200
H      0.351000   -0.133300    2.171400
H      0.837300   -1.586300    1.264600
H      1.861800   -0.137800    1.224600
H     -1.629500   -1.050300   -0.719600
H     -3.220200   -0.718600    0.812900
H      1.605600   -1.277800   -3.096200
