14
gdb_21945
O     -0.079600    1.459000   -0.079100
C      0.055300    0.050800   -0.108900
C     -1.342100   -0.527700    0.141700
C     -1.358600   -2.015500    0.143600
C     -1.671600   -2.949700    1.083800
N     -1.491900   -4.183300    0.506400
N     -1.102000   -4.068800   -0.680500
O     -0.998300   -2.659900   -0.968100
H      0.781400    1.850000   -0.253700
H      0.429100   -0.305800   -1.079300
H      0.747400   -0.310000    0.667800
H     -1.714800   -0.163200    1.102800
H     -2.015800   -0.149100   -0.635200
H     -2.005000   -2.834600    2.100700
