17
gdb_5919
C      0.268700    1.560000    0.121500
C      0.044300    0.033300    0.025100
C      0.707100   -0.688300    1.218900
C     -1.480500   -0.311200   -0.057100
C     -2.265800    0.270600    1.105300
O     -2.362100   -0.260300    2.182400
C      0.661300   -0.450900   -1.221100
N      1.143000   -0.829000   -2.201600
H      1.336000    1.791500    0.087700
H     -0.220600    2.088000   -0.701600
H     -0.130000    1.939100    1.067300
H      0.222200   -0.391600    2.151400
H      0.617800   -1.772900    1.118500
H      1.768900   -0.434400    1.274600
H     -1.884800    0.077000   -0.997100
H     -1.598300   -1.398300   -0.044400
H     -2.758700    1.248400    0.908600
