20
gdb_13435
C     -0.243400    1.233400   -1.528900
C     -0.026100   -0.105800   -0.854300
C      1.347100   -0.641800   -0.499600
C      2.630900    0.109300   -0.784400
C      0.382400   -0.243700    0.601200
C      0.614500    0.956900    1.505700
C     -0.685600    1.439300    2.114900
O     -1.090600    2.572200    2.073200
H      0.470100    1.995400   -1.207600
H     -0.149300    1.136500   -2.616100
H     -1.245900    1.619600   -1.315600
H     -0.731200   -0.861700   -1.192400
H      1.458000   -1.716900   -0.622800
H      2.525300    1.190900   -0.675600
H      3.429400   -0.211700   -0.106100
H      2.971500   -0.083100   -1.807700
H     -0.076700   -1.075900    1.131200
H      1.276000    0.660700    2.334000
H      1.081700    1.801200    0.996500
H     -1.275700    0.640100    2.623900
