14
gdb_4268
C     -0.023900    1.505100    0.039700
C      0.001100    0.002300   -0.035400
N     -0.030200   -0.602600   -1.172300
C     -0.006000   -2.019400   -1.232200
O     -0.035200   -2.597200   -2.300400
C      0.055400   -2.723600    0.056000
C      0.085500   -2.029400    1.207100
N      0.058400   -0.654200    1.172300
H      0.875300    1.888700    0.535200
H     -0.072700    1.905300   -0.971600
H     -0.892900    1.856000    0.607800
H      0.075500   -3.805400    0.050500
H      0.130700   -2.479200    2.192000
H      0.080400   -0.125200    2.028700
