11
gdb_21899
O      0.134100    1.335200    0.028100
C      0.083200   -0.002600    0.028600
N      0.080000   -0.740700   -1.072100
N      0.021800   -1.985900   -0.584700
N     -0.012700   -2.113300    0.724200
C      0.025400   -0.844300    1.168700
C      0.008100   -0.486600    2.533300
C     -0.005300   -0.152100    3.688700
H      0.166100    1.631000   -0.890400
H      0.005200   -2.787000   -1.193800
H     -0.017200    0.140200    4.709400
