13
gdb_5178
O      0.344000   -0.091800   -0.158400
C      0.517000    1.064300   -0.377000
O      0.425800    2.007000    0.611100
C      0.735700    3.298400    0.276400
C      1.861000    3.867500   -0.265100
C      1.598800    5.268000   -0.346700
C      0.338900    5.491600    0.150600
N     -0.187000    4.275600    0.525200
H      0.766900    1.517800   -1.351800
H      2.764300    3.348800   -0.543700
H      2.271900    6.022100   -0.723300
H     -0.225900    6.400300    0.277300
H     -1.089500    4.111000    0.936600
