14
gdb_16980
C      0.005400    1.561300   -0.102900
O      1.479700    1.548400    0.105900
C      1.251400    0.333700    0.924700
C      1.306800   -1.268300    0.900700
O     -0.183500   -1.127800    1.061600
C      0.066500    0.025900    0.104300
C      0.608100   -0.723000   -1.116500
C      1.445100   -1.605600   -0.572000
H     -0.497600    2.133700    0.682100
H     -0.251100    1.928500   -1.100200
H      1.055300    0.657800    1.950400
H      1.761000   -1.877600    1.681400
H      0.338600   -0.531600   -2.144800
H      2.073600   -2.366200   -1.009700
