11
gdb_21901
O      0.121100    1.332300    0.056900
C      0.079900   -0.005100    0.041900
N      0.078300   -0.725700   -1.072400
N      0.030600   -1.978400   -0.595500
N      0.001700   -2.126000    0.703400
C      0.032300   -0.863500    1.168300
C      0.016900   -0.505200    2.590300
O     -0.024700   -1.293100    3.504800
H      0.147800    1.644100   -0.856900
H      0.017600   -2.770900   -1.218500
H      0.047600    0.591100    2.765000
