16
gdb_13130
O      0.014700    1.421400   -0.135400
C      0.019000    0.030400    0.140400
C     -1.355000   -0.514500   -0.234400
C     -1.467800   -2.009100    0.014800
O     -1.393500   -2.381100    1.418400
C     -2.692000   -3.006700    1.431600
C     -2.871800   -2.632500   -0.045200
O     -3.723200   -2.750300   -0.870700
H      0.847600    1.791700    0.170700
H      0.795500   -0.492700   -0.442800
H      0.212000   -0.172800    1.203700
H     -2.119700    0.019400    0.340000
H     -1.548300   -0.321800   -1.296100
H     -0.725500   -2.565700   -0.577100
H     -2.649400   -4.084600    1.634800
H     -3.392600   -2.533100    2.130600
