18
gdb_14440
C     -0.045900    1.512300    0.021500
C      0.032900    0.013500   -0.014400
C      0.853700   -0.806700   -1.018700
C     -0.117800   -2.002300   -0.757700
O      0.388900   -2.890600    0.227600
C      0.543300   -2.122600    1.427100
C     -0.270900   -0.853300    1.202500
C     -1.085500   -1.025500   -0.047600
H      0.899100    1.952100    0.362700
H     -0.260200    1.920900   -0.972900
H     -0.833800    1.855200    0.700700
H      0.741600   -0.408700   -2.032400
H      1.915500   -0.988400   -0.818000
H     -0.452900   -2.587800   -1.612400
H      0.159700   -2.709400    2.270200
H      1.606800   -1.916300    1.611700
H     -0.711100   -0.349400    2.055500
H     -2.160200   -0.933800   -0.132000
