14
gdb_1612
C      0.166200    1.378200    0.037900
N      0.098400   -0.070200   -0.098900
C      0.488100   -0.825600    1.083300
C     -0.311000   -0.586500   -1.286500
O     -0.629500    0.089400   -2.257100
C     -0.413700   -2.106200   -1.523100
O     -0.178000   -3.018300   -0.775500
H      1.190600    1.688100    0.277000
H     -0.146300    1.833800   -0.899600
H     -0.491000    1.712400    0.849700
H      0.410500   -1.892600    0.901700
H      1.521000   -0.578400    1.358900
H     -0.157500   -0.553600    1.927900
H     -0.764900   -2.260100   -2.563300
