21
gdb_7842
C     -0.067300    1.561100   -0.225100
C     -0.046200    0.049800   -0.048800
O      0.661800   -0.500600   -1.151400
C      0.606900   -0.372900    1.274100
N      0.736800   -1.830500    1.295100
C      2.080000   -2.404900    1.192900
C      1.317100   -2.494200    2.467200
C      1.751600   -1.731300    3.699000
H      0.952900    1.958300   -0.238900
H     -0.546500    1.824400   -1.171600
H     -0.618700    2.041600    0.589200
H     -1.080700   -0.331200   -0.043700
H      0.661600   -1.455000   -1.013900
H      1.574500    0.143200    1.379000
H     -0.033200   -0.058900    2.107600
H      2.186900   -3.269000    0.541400
H      2.920400   -1.712300    1.164300
H      0.825900   -3.440800    2.690600
H      2.309600   -0.825800    3.449300
H      0.889300   -1.442300    4.310500
H      2.397600   -2.361800    4.318800
