17
gdb_13567
C     -0.455500    1.188900    0.051600
N      0.119200   -0.148900    0.115300
C      0.734500   -0.570100    1.260800
O      0.792600    0.054300    2.299500
C      0.214300   -0.891100   -1.101300
C     -0.096100   -2.374600   -1.114100
C     -1.042700   -1.401300   -1.766500
O     -2.250000   -1.099000   -1.140200
H      0.115700    1.825700   -0.636000
H     -1.491300    1.133800   -0.290200
H     -0.410300    1.615800    1.053400
H      1.179700   -1.574600    1.138000
H      0.993300   -0.553100   -1.785200
H      0.514200   -3.025400   -1.729500
H     -0.435900   -2.806700   -0.180000
H     -1.063300   -1.361200   -2.855100
H     -2.815200   -1.877300   -1.175700
