16
gdb_13032
O      0.047000   -0.003000    0.001200
C     -0.025500    1.189600    0.037900
C     -1.172800    2.184000    0.286900
C     -0.086400    3.244400    0.639100
C      1.023600    2.321400    0.042600
C      2.327000    2.109400    0.825600
C      3.279200    1.247200    0.137300
C      4.065300    0.553800   -0.449800
H     -1.714600    2.411600   -0.636900
H     -1.896900    1.903000    1.055000
H     -0.194300    4.225800    0.176200
H      0.026700    3.372600    1.718800
H      1.253900    2.607000   -0.990400
H      2.788700    3.088200    1.010600
H      2.092200    1.689400    1.812300
H      4.753400   -0.074000   -0.959100
