15
gdb_20215
C     -0.030600    1.521000   -0.000100
C      1.125500    2.194800    0.019400
C      2.360000    1.413700    0.066700
C      2.448400    0.106700    0.795300
C      1.144200   -0.688700    0.799700
C      0.058000    0.062900    0.008000
C      1.216800   -0.647900   -0.694400
N      2.519200    0.097800   -0.692800
H     -0.999200    2.005100   -0.047100
H      1.187700    3.276000   -0.012000
H      3.295000    1.962700    0.015200
H      3.308300   -0.151700    1.404300
H      0.903000   -1.492600    1.481200
H     -0.867900   -0.500700   -0.048400
H      1.055700   -1.392600   -1.462000
