17
gdb_18703
C      0.212300    1.524100   -0.061600
C     -0.010700    0.011200    0.025000
N      0.349900   -0.601600   -1.253500
C      0.998300   -1.684000   -1.286300
O      1.505200   -2.432000   -0.273300
C      1.403200   -1.902000    1.030100
C      2.173300   -0.653900    1.357200
C      0.660800   -0.618600    1.239500
H      1.275800    1.753200   -0.179800
H     -0.322000    1.932000   -0.923400
H     -0.145800    2.020900    0.846100
H     -1.091100   -0.157500    0.139100
H      1.234500   -2.161500   -2.235500
H      1.339800   -2.710500    1.748200
H      2.625000   -0.566000    2.338800
H      2.752400   -0.216900    0.550100
H      0.105700   -0.524100    2.168200
