14
gdb_10116
O      0.025800    1.424200    0.106500
C      0.061000    0.031600   -0.045100
C     -1.346800   -0.583500   -0.002400
O     -1.868100   -0.239700    1.280300
C     -3.067900   -0.774100    1.637000
N     -3.521500   -0.535300    2.784500
C     -2.204600   -0.072000   -1.086700
N     -2.888900    0.293600   -1.942200
H     -0.405100    1.612000    0.949000
H      0.518400   -0.182400   -1.015000
H      0.652500   -0.465400    0.738000
H     -1.272600   -1.674800   -0.106900
H     -3.531400   -1.378700    0.848500
H     -4.421700   -0.992800    2.912500
