16
gdb_5115
C      0.044500    1.454500    0.009200
N      0.040400    0.005300    0.004700
C      0.056700   -0.800700   -1.109300
O      0.078700   -0.206300   -2.330000
C      0.045800   -2.093300   -0.664800
N      0.022800   -2.101500    0.717400
C      0.020000   -0.845800    1.093700
C     -0.002000   -0.353000    2.500100
H      0.926600    1.842400    0.528500
H      0.062000    1.805800   -1.022400
H     -0.851600    1.847400    0.500000
H      0.087700   -0.895700   -3.000700
H      0.052900   -3.003200   -1.244800
H      0.879000    0.254300    2.742900
H     -0.887200    0.259200    2.713500
H     -0.015500   -1.218900    3.163400
