22
gdb_9428
C      0.705700    0.985700   -1.004200
C     -0.049800    0.121400   -0.008900
O      0.881400   -0.468800    0.874600
C      0.283400   -1.293000    1.848600
C      1.379900   -1.853500    2.753200
C      2.138800   -0.748400    3.487800
O      0.709600   -2.743500    3.633800
C      1.549900   -3.647700    4.310100
H      1.417600    0.381800   -1.574000
H      0.010300    1.457200   -1.705100
H      1.262000    1.771500   -0.485200
H     -0.777900    0.727400    0.556700
H     -0.624000   -0.661500   -0.532900
H     -0.440600   -0.725700    2.457900
H     -0.261000   -2.129200    1.382700
H      2.084100   -2.419900    2.120800
H      2.973600   -1.146700    4.071300
H      2.537100   -0.035300    2.762200
H      1.463900   -0.217500    4.167600
H      2.163700   -4.234900    3.608500
H      2.224200   -3.149800    5.021800
H      0.904300   -4.331200    4.867700
