17
gdb_17364
C      0.100400    1.193200    0.690300
C      0.053100    0.052600   -0.309400
O      1.000600   -0.230500   -1.009200
C     -1.238200   -0.744600   -0.353600
C     -1.405200   -1.859500   -1.412600
N     -1.615100   -2.923400   -0.360600
C     -0.370500   -2.947200    0.428400
C     -1.347200   -1.871400    0.694300
H      1.109800    1.602300    0.745900
H     -0.596200    1.982700    0.384100
H     -0.221300    0.853500    1.681100
H     -2.101000   -0.075300   -0.302400
H     -2.303100   -1.754800   -2.023200
H     -0.536600   -2.032800   -2.052200
H     -0.336700   -3.769200    1.136500
H      0.572900   -2.718300   -0.061100
H     -1.928900   -1.813600    1.608900
