11
gdb_341
C     -0.016100    1.487500    0.001700
N      0.002200    0.026100    0.009700
C     -0.084000   -0.675500    1.203900
O     -0.177600   -0.168400    2.292700
C      0.107100   -0.654000   -1.192800
O      0.185800   -0.110100   -2.265100
H      0.904100    1.868200   -0.446600
H     -0.862200    1.845200   -0.588800
H     -0.103500    1.819900    1.034500
H     -0.057000   -1.768000    1.043000
H      0.110700   -1.751000   -1.059600
