19
gdb_12062
C     -0.127900    1.645200    0.051100
C      0.015200    0.131600   -0.002500
C     -1.348300   -0.534100   -0.163900
O     -1.874300   -0.162600   -1.430800
C      1.074000   -0.490500   -0.963600
C      1.696700   -1.120800    0.277800
C      2.060200   -0.095600    1.271800
N      0.652100   -0.526800    1.211700
H      0.836200    2.159700    0.060300
H     -0.686400    1.987900   -0.824200
H     -0.681600    1.940400    0.949500
H     -1.224300   -1.623900   -0.081400
H     -2.002800   -0.211400    0.660500
H     -2.741300   -0.565900   -1.526500
H      0.633200   -1.199400   -1.665400
H      1.714400    0.200500   -1.519800
H      2.010400   -2.155700    0.371800
H      2.550600   -0.425700    2.182700
H      2.342000    0.903100    0.949300
