18
gdb_15225
C     -0.115500    1.558800    0.164000
C     -0.011900    0.063200   -0.039800
C      0.555300   -0.581300   -1.276800
C      1.139000    0.200800   -2.435000
O      2.222300   -0.483600   -3.043600
C      1.327800   -0.669300    0.042500
C      2.562500    0.045000    0.186500
C      3.613600    0.625900    0.283100
H      0.783700    2.084400   -0.163700
H     -0.971800    1.970300   -0.381000
H     -0.255800    1.786100    1.225900
H     -0.827000   -0.492100    0.417400
H      0.097600   -1.518600   -1.580900
H      0.380600    0.321800   -3.216000
H      1.438500    1.206600   -2.114300
H      2.929300   -0.514200   -2.388500
H      1.313800   -1.635200    0.538600
H      4.534400    1.143500    0.392800
