17
gdb_14941
O     -0.068000   -0.029600   -0.216300
C     -0.001700    1.179700   -0.131800
N      1.147600    1.900400   -0.027400
C      1.158200    3.349800    0.065500
C      1.858500    3.809800    1.351100
C      3.146900    3.053700    1.548200
C      3.403500    1.903800    0.928100
C      2.433700    1.217900    0.007500
H     -0.896700    1.833800   -0.127700
H      1.685200    3.769600   -0.803000
H      0.124900    3.706100    0.025000
H      2.052600    4.887900    1.295100
H      1.195300    3.662300    2.214700
H      3.881700    3.482000    2.224300
H      4.353200    1.396100    1.071500
H      2.241800    0.188800    0.327300
H      2.860900    1.146000   -1.006600
