22
gdb_10228
C     -0.005700    1.584400    0.053600
C      0.034200    0.054600    0.013600
C      0.642700   -0.489600   -1.282000
C      0.708700   -2.015800   -1.339900
C      1.325800   -2.529900   -2.648000
O      2.679000   -2.134700   -2.762100
O      1.527000   -2.453900   -0.247900
C      1.242500   -3.755600    0.220400
H      1.001500    2.007800   -0.028900
H     -0.601200    1.990200   -0.772200
H     -0.443500    1.947800    0.988700
H      0.612400   -0.326500    0.861600
H     -0.983900   -0.341600    0.131800
H      0.056600   -0.144600   -2.143900
H      1.656100   -0.096400   -1.421200
H     -0.305100   -2.434100   -1.227300
H      1.226900   -3.626800   -2.700200
H      0.788100   -2.114900   -3.507300
H      3.065300   -2.295900   -1.891500
H      0.205500   -3.834200    0.578700
H      1.401300   -4.526700   -0.546900
H      1.920000   -3.952100    1.055300
