16
gdb_20116
O     -0.098800    0.243400    0.569900
C     -0.162700    1.455800    0.504700
C      1.059200    2.318200    0.466500
C      2.165900    1.943100    1.400300
N      2.295300    1.691400   -0.029900
N     -1.364600    2.153700    0.538800
C     -1.898000    2.937500   -0.564600
C     -2.559400    1.669500   -0.109900
H      0.917600    3.360400    0.199800
H      2.802100    2.728800    1.797100
H      1.981200    1.101200    2.060900
H      2.074600    0.709500   -0.200400
H     -2.323900    3.901500   -0.301500
H     -1.361300    2.912000   -1.509900
H     -2.454300    0.784600   -0.731300
H     -3.471500    1.721100    0.477100
