22
gdb_9264
C     -0.155500    1.534500    0.074800
C      0.025300    0.015800   -0.016400
C      0.809000   -0.473800   -1.250400
C      2.259300    0.032500   -1.243700
C      0.733500   -2.009000   -1.337700
C      1.287600   -2.603100   -2.650400
C      1.105700   -4.047400   -2.733200
C      0.942800   -5.237800   -2.775200
H      0.797700    2.057900    0.195200
H     -0.639800    1.929400   -0.825700
H     -0.783200    1.800200    0.931100
H      0.525800   -0.349600    0.891200
H     -0.965200   -0.456600   -0.025200
H      0.309600   -0.063800   -2.142300
H      2.805800   -0.277800   -2.139000
H      2.304500    1.124300   -1.205100
H      2.801100   -0.354600   -0.372000
H      1.271200   -2.454800   -0.491200
H     -0.311300   -2.324500   -1.237500
H      0.789500   -2.124200   -3.504400
H      2.354300   -2.371400   -2.752900
H      0.804800   -6.289200   -2.824100
