14
gdb_3149
O      0.035000    0.018400    0.017900
C      0.024700    1.220800    0.031100
N     -0.984500    2.160400    0.066000
C     -0.101600    3.335100    0.052400
C      1.064700    2.330500    0.016500
C      2.380000    2.330600    0.738600
C      2.344200    2.343000   -0.767200
H     -1.988400    2.070400    0.081700
H     -0.207600    3.965000   -0.837300
H     -0.164100    3.952700    0.954800
H      2.675000    3.240200    1.251100
H      2.664900    1.411100    1.238800
H      2.604000    1.431600   -1.295300
H      2.615100    3.260800   -1.278400
