13
gdb_21924
O      0.223200    1.165400   -0.617000
C     -0.037900    0.099700    0.272500
C     -1.393800   -0.498700    0.051000
C     -2.244900   -0.462700   -1.007400
C     -3.348300   -1.234200   -0.547900
O     -4.458600   -1.490300   -1.254900
N     -3.182600   -1.690600    0.670400
O     -1.922700   -1.211500    1.059400
H     -0.422300    1.859000   -0.443900
H      0.737400   -0.651000    0.080500
H      0.055900    0.391300    1.329300
H     -2.111100    0.014400   -1.962000
H     -5.036700   -2.036700   -0.705400
