15
gdb_4261
C     -0.022700    1.520700    0.063800
C      0.001400    0.022600   -0.033200
C     -0.026900   -0.678400   -1.194300
C     -0.001600   -2.142800   -1.241900
O     -0.027000   -2.782400   -2.289300
C      0.057100   -2.768400    0.083500
C      0.083400   -2.025500    1.211400
N      0.056400   -0.655300    1.164000
H      0.873600    1.900600    0.568700
H     -0.066700    1.965700   -0.930700
H     -0.893900    1.868000    0.632300
H     -0.070300   -0.150400   -2.139700
H      0.078900   -3.849700    0.137900
H      0.126700   -2.453000    2.206600
H      0.077400   -0.131300    2.022800
