18
gdb_15570
C      0.376200    1.608100   -0.139300
C     -0.024500    0.133100    0.036000
C      0.407300   -0.780000   -1.149500
C      1.673300   -1.539900   -0.669400
C      1.607200   -1.402800    0.826300
C      0.684600   -0.510000    1.214000
C      0.417400   -0.172400    2.613300
O     -0.393100    0.652500    2.979000
H      1.454600    1.707500   -0.307300
H     -0.141100    2.047600   -0.998400
H      0.114100    2.184700    0.751200
H     -1.109300    0.097700    0.183200
H     -0.385500   -1.501700   -1.367900
H      0.583700   -0.209200   -2.064900
H      1.691300   -2.586400   -0.994200
H      2.602900   -1.092700   -1.049300
H      2.255400   -1.950700    1.504000
H      1.023000   -0.746000    3.351200
