15
gdb_11275
C      0.043000    1.526800    0.024400
C     -0.000500   -0.000400   -0.004000
C      0.782600   -0.634500   -1.188200
O      1.725900   -1.529400   -0.559300
C      1.538600   -1.370400    0.782100
N      0.634600   -0.575100    1.195600
C      2.403300   -2.140800    1.612300
C      3.136400   -2.793300    2.304800
H      1.078500    1.882000    0.044700
H     -0.448400    1.943900   -0.861000
H     -0.465300    1.905600    0.914500
H     -1.049200   -0.322100   -0.014800
H      0.158400   -1.219700   -1.868000
H      1.346800    0.104300   -1.767300
H      3.780400   -3.367200    2.924900
