15
gdb_10676
C      0.824200    1.014200    0.440000
C     -0.256800    0.088500   -0.050400
O     -1.308600   -0.057500    0.539000
C     -0.027600   -0.715200   -1.315800
C     -0.217700   -2.211300   -1.132600
N     -1.207700   -1.440200   -1.839300
C      0.925700   -0.303400   -2.389100
O      1.764200    0.558500   -2.304200
H      1.769700    0.473700    0.550900
H      1.016100    1.793600   -0.302300
H      0.517700    1.449100    1.391800
H      0.378300   -2.890400   -1.737200
H     -0.417000   -2.534600   -0.114400
H     -1.971600   -1.213500   -1.199300
H      0.783400   -0.895100   -3.319200
