18
gdb_18059
C     -0.013300   -1.020400   -0.455600
C     -0.011400    0.123500   -0.086100
C      0.021500    1.513000    0.360000
C      1.393100    2.154800    0.174800
C      1.918000    2.724200   -1.112500
C      0.821600    3.440900   -1.911500
C      0.552700    4.371000   -0.684200
C      1.648500    3.635500    0.099500
H     -0.025500   -2.030600   -0.781800
H     -0.746300    2.081400   -0.176000
H     -0.257500    1.561200    1.421000
H      2.168700    1.632800    0.730800
H      2.866900    2.398000   -1.521500
H      1.218500    3.995700   -2.764000
H     -0.007500    2.819500   -2.265400
H      0.819300    5.408800   -0.894800
H     -0.454000    4.360800   -0.252700
H      2.358100    4.114400    0.764400
