16
gdb_17502
C     -0.050200    1.496600   -0.013500
C      0.142500    0.018200   -0.009700
O     -0.814800   -0.835100    0.639500
C      0.579500   -0.953100    0.988600
C      1.319100   -1.807100   -0.086400
C      0.372300   -2.240500   -1.192600
C      0.864600   -0.821900   -1.139400
O      1.642500   -0.220300   -2.110500
H      0.870100    1.994900   -0.332400
H     -0.847600    1.786200   -0.707900
H     -0.321800    1.850400    0.984400
H      0.840600   -0.846100    2.035000
H      2.296600   -2.247300    0.054500
H      0.856700   -2.835700   -1.961000
H     -0.657100   -2.494700   -0.973200
H      1.102700   -0.103800   -2.900600
