16
gdb_18237
C      0.115400    1.406100    0.092600
N      0.201800   -0.045500    0.077600
C      0.521400   -0.630500   -0.990200
O      0.832200   -0.013200   -2.179700
C      0.846500   -0.953700   -3.267900
C      0.800200   -2.328200   -2.631900
N      1.924200   -2.527200   -1.706600
C      0.595700   -2.103800   -1.181500
H      1.032300    1.824800    0.525900
H     -0.024000    1.852500   -0.899000
H     -0.712200    1.705600    0.743200
H     -0.029700   -0.779300   -3.903900
H      1.757500   -0.783100   -3.848600
H      0.364700   -3.163500   -3.167800
H      2.032300   -3.522400   -1.521400
H      0.031100   -2.754700   -0.527900
