16
gdb_10364
C     -0.250400   -1.324000   -0.313000
C     -0.138800   -0.136700   -0.162000
C      0.032700    1.291600    0.061600
C     -0.102400    1.793500    1.555500
C      1.151400    2.677900    1.350000
C      1.521200    1.824400    0.112600
C     -0.792300    2.079100   -0.849900
C     -1.459700    2.754800   -1.586500
H     -0.360400   -2.369900   -0.459200
H     -1.045900    2.277500    1.809500
H      0.080500    0.964000    2.241300
H      0.886000    3.700700    1.073300
H      1.875600    2.710900    2.165600
H      2.198300    1.004200    0.359200
H      1.873800    2.333000   -0.785200
H     -2.055500    3.337600   -2.244500
