18
gdb_11251
C      0.597200    1.640900   -0.082600
C     -0.115200    0.292300    0.123800
C      0.092700   -0.707100   -1.047200
C      1.206400   -1.695100   -0.574300
C      1.164900   -1.529900    0.939100
C      0.448300   -0.471100    1.303200
C      1.011200   -3.065900   -1.033900
C      0.845300   -4.195900   -1.410000
H      1.667800    1.495700   -0.263400
H      0.176700    2.178600   -0.939000
H      0.493900    2.282000    0.799300
H     -1.184300    0.496400    0.263300
H     -0.824100   -1.276500   -1.218400
H      0.354900   -0.212900   -1.986200
H      2.188700   -1.359500   -0.940500
H      1.698000   -2.204000    1.598900
H      0.314000   -0.134300    2.326100
H      0.700400   -5.193700   -1.742400
