21
gdb_1106
C      0.115200    1.544100   -0.018500
C     -0.021200    0.021500    0.058700
O      0.713300   -0.481000    1.176500
C     -1.479200   -0.529500    0.039100
C     -2.214700   -0.029500   -1.217700
C     -1.402700   -2.067700   -0.004900
C     -2.254800   -0.099900    1.298000
H      1.174900    1.811600    0.014700
H     -0.310100    1.949200   -0.940200
H     -0.382000    2.038000    0.824800
H      0.491100   -0.410500   -0.811000
H      0.436400    0.013200    1.955100
H     -1.638100   -0.242200   -2.125600
H     -3.182600   -0.532200   -1.318200
H     -2.406700    1.047200   -1.184700
H     -0.820000   -2.450600    0.835800
H     -2.404500   -2.509000    0.033000
H     -0.922600   -2.409700   -0.929000
H     -2.356600    0.987800    1.371000
H     -3.265900   -0.520100    1.283900
H     -1.768500   -0.462800    2.209800
