16
gdb_7906
C     -0.102400    1.557800    0.018900
C      0.054700    0.037200   -0.001500
C      0.818200   -0.502600   -1.235400
C      1.906400   -1.366200   -0.623800
O      2.710900   -2.094400   -1.152500
C      1.772700   -1.150700    0.861400
N      2.694100   -1.722000    1.678200
N      0.780900   -0.413500    1.203500
H      0.877000    2.046300   -0.029900
H     -0.701700    1.900100   -0.831100
H     -0.592300    1.875100    0.943100
H     -0.947500   -0.409500    0.039500
H      0.204100   -1.085200   -1.927300
H      1.285700    0.299800   -1.817200
H      3.265000   -2.441700    1.263100
H      2.493000   -1.790200    2.661900
