17
gdb_5577
C      0.228400    1.480200   -0.101200
N     -0.055600    0.058600    0.001400
C      0.549300   -0.659300    1.040800
C      0.645900   -2.020700    1.153400
C      0.221100   -3.145800    0.281300
O      1.267600   -2.339200    2.336000
C      1.553700   -1.179000    2.968500
C      1.144400   -0.113700    2.232000
H      1.302100    1.721200   -0.169200
H     -0.271400    1.877200   -0.988400
H     -0.179700    2.006700    0.767900
H      0.033200   -0.409700   -0.889000
H     -0.467200   -2.782800   -0.487700
H      1.063000   -3.636800   -0.224800
H     -0.305600   -3.915100    0.857100
H      2.045700   -1.269600    3.922900
H      1.250000    0.925900    2.496600
