17
gdb_18904
C      0.028000    1.543700   -0.012000
C     -0.011200    0.052000   -0.093200
C      0.620600   -0.877500   -1.161200
C     -0.446000   -1.891600   -0.779800
C      0.875000   -1.799600   -0.008500
N      0.596400   -0.794400    1.060800
C     -0.807000   -1.120800    1.515300
C     -1.264900   -0.889000    0.064600
H      1.063200    1.900500    0.007600
H     -0.475300    1.993100   -0.875200
H     -0.469300    1.901200    0.896100
H      1.165200   -0.699300   -2.078700
H     -0.772900   -2.774600   -1.311300
H      1.581900   -2.610400    0.109400
H     -0.932900   -2.111700    1.962000
H     -1.152400   -0.350700    2.211300
H     -2.280700   -0.634200   -0.238400
