18
gdb_10500
C     -0.357100    1.398300    0.042700
C      0.231800   -0.014100    0.110800
C      0.817100   -0.469500   -1.216400
C      0.643500   -1.868600   -1.659500
O     -0.167200   -0.836500   -2.210000
C      1.946000    0.285800   -1.711100
C      2.888600    0.932600   -2.091100
C      4.025000    1.707500   -2.566400
H      0.409300    2.129800   -0.229800
H     -1.152600    1.446200   -0.706700
H     -0.779000    1.690300    1.008800
H      1.018600   -0.061200    0.873200
H     -0.544600   -0.730500    0.399900
H      1.372200   -2.306900   -2.339200
H      0.132700   -2.571400   -1.001200
H      4.834400    1.056800   -2.915100
H      3.737700    2.357500   -3.400200
H      4.429000    2.345300   -1.772700
