15
gdb_20365
C     -0.209600    1.343900   -0.276800
C      1.206000    1.093900    0.155900
C      0.226900   -0.061600    0.087500
C     -0.263100   -0.703900    1.319700
N     -0.510400   -2.017200    1.369300
N     -0.925400   -2.207300    2.617400
N     -0.974700   -1.138800    3.396900
C     -0.556100   -0.163100    2.590900
H     -0.875400    1.852900    0.411600
H     -0.403100    1.554500   -1.322600
H      1.991200    1.131700   -0.590800
H      1.510000    1.431700    1.140700
H      0.354100   -0.759600   -0.732000
H     -1.188900   -3.119300    2.952400
H     -0.486000    0.851700    2.948500
