20
gdb_9269
C      0.032400    1.578700    0.094600
C     -0.006500    0.051800   -0.001900
C      0.696800   -0.493100   -1.251100
O      2.062100   -0.075800   -1.308300
C      0.576600   -2.017200   -1.366200
C      1.240000   -2.564600   -2.645300
C      1.196400   -4.018300   -2.732000
C      1.147700   -5.218800   -2.777300
H      1.062900    1.941200    0.056500
H     -0.510700    2.038700   -0.738300
H     -0.424000    1.929000    1.025100
H      0.467000   -0.393200    0.886000
H     -1.045100   -0.301600    0.000700
H      0.242700   -0.033900   -2.140200
H      2.502200   -0.416900   -0.520800
H      1.041400   -2.486300   -0.488500
H     -0.480500   -2.305300   -1.347500
H      0.746300   -2.129900   -3.524600
H      2.277500   -2.214400   -2.679200
H      1.112200   -6.278400   -2.831400
