11
gdb_21666
N     -0.058200    1.362400    0.155200
C      0.006800   -0.002300    0.046500
N     -1.070800   -0.786800    0.030900
N     -0.544300   -2.017900   -0.015400
N      0.760000   -2.116100   -0.037800
C      1.160000   -0.833200    0.000700
C      2.514300   -0.427900   -0.015000
N      3.597800   -0.018500   -0.032100
H      0.741400    1.867300   -0.195800
H     -0.943200    1.768200   -0.109600
H     -1.133100   -2.835300   -0.033600
