18
gdb_7791
C     -0.012700    1.581500    0.005600
C      0.001200    0.052700   -0.058100
C      0.804000   -0.489100   -1.242700
C      0.719900   -2.007300   -1.268300
O      1.096500   -2.637100   -0.031700
C      0.879100   -2.057300    1.174800
O      0.999100   -2.721200    2.168300
C      0.584300   -0.562600    1.220300
H      1.005300    1.979000    0.093500
H     -0.463000    2.010500   -0.895400
H     -0.584000    1.937600    0.869100
H     -1.035700   -0.296800   -0.168700
H      0.421900   -0.101900   -2.194100
H      1.851600   -0.170700   -1.160200
H     -0.304400   -2.324500   -1.506100
H      1.385000   -2.437700   -2.021200
H      1.547700   -0.082100    1.444300
H     -0.050200   -0.390600    2.093300
