13
gdb_3256
C     -0.031600    1.506100   -0.035200
O      1.156500    0.695500    0.057500
C     -0.098300    0.049100    0.007600
C     -0.544800   -0.953200    1.101700
C     -0.895600   -1.922200   -0.042900
O     -1.849200   -1.257600   -0.878800
C     -0.457300   -0.962800   -1.073200
H     -0.267000    2.082800    0.857800
H     -0.165800    2.030600   -0.979800
H      0.313300   -1.275200    1.697700
H     -1.374900   -0.669000    1.751800
H     -0.893500   -3.005200   -0.047500
H     -0.033200   -1.101000   -2.060600
