12
gdb_14813
N     -0.312000   -1.158600   -0.311900
C     -0.197400   -0.020200   -0.151400
C     -0.073600    1.407600    0.065700
C      0.084200    1.923700    1.521800
O      1.245500    2.699900    1.154200
C      1.311400    2.109100   -0.151500
C      2.472500    1.231800   -0.323700
N      3.395900    0.552800   -0.466300
H     -0.859500    1.931800   -0.480900
H     -0.727800    2.551700    1.896000
H      0.325200    1.142100    2.248900
H      1.315700    2.865600   -0.942800
