17
gdb_19832
C     -0.018700    1.548200   -0.010900
C      1.303500    0.796000   -0.005100
C      2.163300    0.756800    1.195100
C      1.840700    0.111300    2.322300
C      0.576100   -0.640600    2.469400
N     -0.694500    0.138900    2.501200
C     -0.375200   -0.671300    1.316500
C     -0.024100    0.048200    0.043500
H     -0.299700    2.065000    0.898500
H     -0.314200    2.027300   -0.937900
H      1.836700    0.792500   -0.951600
H      3.117000    1.274900    1.130700
H      2.525500    0.111700    3.165500
H      0.617900   -1.514500    3.115500
H     -1.375300   -0.350100    3.077600
H     -0.936300   -1.591300    1.174400
H     -0.306300   -0.482000   -0.859700
