12
gdb_18842
O      0.008600    0.064900   -0.056300
C     -0.018000    1.259700   -0.081700
C     -1.117600    2.269800    0.118900
C     -0.062500    3.208100    0.679400
C      1.078800    2.365500    0.025800
N      1.251500    2.906100   -1.337800
C      0.163300    3.507500   -1.584000
N     -0.806900    3.599700   -0.508300
H     -2.146800    2.091200    0.401200
H     -0.084800    3.788600    1.592700
H      2.008000    2.134700    0.538700
H     -0.084900    3.975400   -2.529700
