19
gdb_13438
C     -0.165600    1.448900    0.723000
C      0.090000    0.023800    0.283600
C      0.283200   -0.383100   -1.144600
C      0.230800    0.585400   -2.306200
N      1.398200   -0.443400   -0.187200
C      2.521400    0.470100   -0.295600
C      3.713600   -0.258500   -0.900700
O      4.586100    0.278600   -1.531200
H      0.240300    1.619900    1.726400
H      0.273100    2.194100    0.057000
H     -1.243500    1.636700    0.771000
H     -0.393200   -0.705500    0.934800
H     -0.068900   -1.378100   -1.417300
H      0.449400    1.618000   -2.028700
H      0.939300    0.293000   -3.089500
H     -0.770900    0.570100   -2.748100
H      2.362000    1.393600   -0.867100
H      2.823800    0.769300    0.719300
H      3.714300   -1.351900   -0.694700
