14
gdb_13224
C     -0.053400   -3.837000   -0.135600
C     -0.031000   -2.630500   -0.087300
C     -0.006700   -1.271700   -0.034000
C      0.016400   -0.061700    0.015100
C      0.050300    1.378300    0.080500
C     -0.101000    2.075100    1.465500
O      1.077900    2.866600    1.238100
C      1.429500    2.102400    0.071800
H     -0.072500   -4.897700   -0.177400
H     -0.630600    1.810300   -0.658700
H     -0.996100    2.690200    1.603200
H      0.012900    1.391700    2.315700
H      2.278600    1.432100    0.252500
H      1.638000    2.737200   -0.795400
