17
gdb_16353
C     -0.065800    1.578300   -0.015900
C      0.045000    0.062400    0.016700
N      1.154300   -0.505900   -0.775800
C      1.761800   -1.159800    0.276800
O      2.714000   -1.890800    0.355500
C      0.731300   -0.593200    1.236300
C      0.981200   -0.064700    2.618600
C      0.149000   -1.304100    2.422700
H      0.891100    2.041800    0.240400
H     -0.364500    1.928300   -1.009700
H     -0.823400    1.923100    0.696200
H     -0.919700   -0.401900   -0.224400
H      1.274000   -0.608200   -1.772500
H      1.985200   -0.173700    3.014600
H      0.474100    0.850000    2.908000
H     -0.922000   -1.232200    2.582000
H      0.585900   -2.263400    2.679200
