18
gdb_13077
C     -0.222300    1.556400   -0.107600
C     -0.006100    0.050200   -0.034800
C      1.260900   -0.504700   -0.723900
O      1.794900   -0.983600    0.526400
C      0.616200   -0.573400    1.248900
C      0.944200    0.333500    2.439900
C      1.624600   -0.382100    3.511800
C      2.175000   -0.989900    4.390100
H      0.684000    2.113100    0.151100
H     -0.506800    1.848600   -1.124000
H     -1.023600    1.883000    0.563700
H     -0.921000   -0.465800   -0.337200
H      1.094800   -1.320200   -1.439000
H      1.915400    0.244900   -1.188100
H      0.062900   -1.448200    1.616000
H      1.565400    1.169400    2.099500
H      0.007700    0.764300    2.819400
H      2.670500   -1.521600    5.164000
