11
gdb_8791
O      0.002600    1.417100    0.009400
C     -0.005500    0.019200    0.002000
C     -1.440300   -0.461600    0.013100
O     -2.417200    0.237500    0.026200
C     -1.602800   -1.993700    0.006600
O     -0.672100   -2.757700   -0.006500
C     -2.998500   -2.463800    0.017600
N     -4.075900   -2.882400    0.025800
H      0.917500    1.713400    0.001300
H      0.481500   -0.422000   -0.884700
H      0.498400   -0.431300    0.874400
