14
gdb_17220
C      0.062800   -1.152200   -0.060200
C      0.001400    0.049800   -0.014100
C     -0.068200    1.464100    0.046500
C     -1.138500    2.359200    0.687500
C     -0.423300    3.522500   -0.039700
O      0.866400    3.606600    0.637900
C      1.191700    2.388100   -0.010800
C      0.167600    2.496200   -1.076500
H      0.114000   -2.211800   -0.099200
H     -2.123500    2.153900    0.262400
H     -1.187300    2.422100    1.778300
H     -0.883100    4.489100   -0.227600
H      2.206400    2.015000    0.010800
H      0.174300    2.398800   -2.152700
