17
gdb_1242
C      0.061200    1.490000   -0.107400
C      0.005900   -0.035300    0.020100
C      0.646900   -0.527000    1.312700
O     -1.334800   -0.523300    0.034100
C     -1.983400   -0.494400   -1.221200
C     -3.259500   -1.194200   -1.131900
C     -4.316700   -1.761900   -1.086400
H      1.099400    1.835800   -0.080200
H     -0.376700    1.840600   -1.046500
H     -0.481600    1.957200    0.720500
H      0.535100   -0.484800   -0.838200
H      0.126400   -0.104300    2.177800
H      0.587900   -1.616400    1.377000
H      1.698100   -0.227700    1.360500
H     -2.163200    0.537900   -1.561600
H     -1.353900   -0.974100   -1.990900
H     -5.249700   -2.266800   -1.039400
