10
gdb_1583
C      0.375900    1.404700    0.066500
C      0.134200   -0.078400    0.062900
O     -0.089000   -0.762200    1.029700
C      0.182900   -0.760000   -1.321700
O      0.398900   -0.164900   -2.345000
C     -0.057500   -2.213500   -1.301000
N     -0.240300   -3.354200   -1.340700
H      1.355800    1.625600   -0.369400
H     -0.362500    1.906100   -0.567900
H      0.319700    1.782500    1.087000
