13
gdb_449
O     -0.026800    0.021900   -0.402700
C     -0.053100    1.206800   -0.154400
C     -1.252600    2.036800    0.319600
C     -0.793800    3.496200    0.171100
C      0.748400    3.412100    0.256200
N      1.011500    2.068800   -0.228200
H     -2.145500    1.782700   -0.253600
H     -1.448500    1.769200    1.364600
H     -1.081600    3.880200   -0.812000
H     -1.209200    4.167200    0.925400
H      1.241300    4.166300   -0.365300
H      1.101300    3.548600    1.289200
H      1.939300    1.705800   -0.378900
