18
gdb_19213
C     -0.035800    1.534900   -0.312500
C      1.436400    1.650500    0.249900
C      1.376300    0.135000    0.570900
C      0.937500   -0.448300    1.938500
C     -0.531100   -0.548600    1.363800
C     -0.021500    0.010700    0.003400
C      0.633400   -0.955100   -1.003600
O      1.952500   -0.774600   -0.389400
H     -0.777900    2.099000    0.258100
H     -0.153000    1.791700   -1.368800
H      2.194200    1.897900   -0.496000
H      1.557800    2.314600    1.109900
H      1.408500   -1.407300    2.163100
H      1.058600    0.214500    2.799500
H     -0.949400   -1.558100    1.326200
H     -1.253200    0.099400    1.866900
H      0.306000   -2.001200   -0.951500
H      0.631300   -0.632700   -2.052600
