14
gdb_2649
C     -0.028200    1.421500   -0.167700
C     -0.008100   -0.019600    0.036800
C      0.020200   -1.212600    0.195100
C      0.038700   -2.655100    0.411000
N     -1.290400   -3.248800    0.291600
C     -1.517800   -4.378000   -0.429000
O     -0.663200   -5.034600   -0.985700
H      0.824900    1.745800   -0.773500
H     -0.940100    1.733800   -0.688200
H      0.013900    1.962400    0.783900
H      0.664200   -3.164600   -0.329100
H      0.469400   -2.880300    1.396600
H     -2.073200   -2.747400    0.679400
H     -2.593600   -4.641800   -0.447900
