18
gdb_8504
C      0.018400    1.434800   -0.073200
C      0.008800   -0.061600   -0.044600
N      0.597400   -0.935900   -1.117400
C      0.058600   -1.921400   -0.118300
C      0.157500   -3.407700   -0.280900
C      0.505800   -1.017300    1.081200
N     -0.824800   -0.994400    1.771800
C     -1.167400   -1.032800    0.312500
H      1.040000    1.812100   -0.182400
H     -0.577200    1.819700   -0.908300
H     -0.404000    1.824300    0.857900
H     -0.000900   -0.917600   -1.949700
H      1.199500   -3.711200   -0.422300
H     -0.233500   -3.920000    0.605500
H     -0.417900   -3.751700   -1.147500
H      1.463700   -1.002300    1.603000
H     -1.013400   -1.903000    2.204300
H     -2.192600   -1.035700   -0.067800
