16
gdb_19885
O      0.179000    1.392900   -0.015700
C     -0.013100    0.013200   -0.034200
C     -0.461300   -0.695100    1.207000
O     -1.035000    0.166500    2.172200
C     -2.390900    0.435800    1.848800
C     -2.710500    1.445400    0.776700
C     -2.660600   -0.038400    0.447600
C     -1.374700   -0.690000   -0.008000
H      0.154200    1.655600    0.914400
H      0.729800   -0.494800   -0.645900
H      0.049300   -1.552500    1.634700
H     -3.061200    0.289700    2.689600
H     -3.699000    1.890700    0.832800
H     -1.938700    2.089600    0.383700
H     -3.578400   -0.552300    0.188100
H     -1.465700   -1.566900   -0.638200
