18
gdb_12855
C     -0.096300    1.549800    0.024900
C     -0.005100    0.038500    0.049200
C     -1.325300   -0.724600   -0.082400
C     -1.008100   -2.062000    0.601700
O     -0.102600   -1.740300    1.661300
C      0.722800   -0.686900    1.219100
C      1.782300   -1.045600    0.157700
O      0.990500   -0.456100   -0.896100
H      0.889100    2.000700    0.175100
H     -0.478900    1.894000   -0.941600
H     -0.769000    1.912300    0.809000
H     -2.118800   -0.194500    0.454500
H     -1.620200   -0.837000   -1.128500
H     -1.875700   -2.553800    1.047500
H     -0.540700   -2.757400   -0.109700
H      1.056000   -0.119100    2.089400
H      2.748600   -0.538600    0.274900
H      1.949900   -2.119000    0.012100
