13
gdb_1642
C      0.134800    1.526300    0.010600
N     -0.060600    0.090000    0.002700
H      0.708500   -0.587200   -0.010100
C     -1.195800   -0.557600    0.010000
N     -2.407100   -0.051200    0.026300
C     -1.097900   -2.136600   -0.001900
O      0.077300   -2.524500   -0.017100
O     -2.212500   -2.671000    0.005800
H      1.203700    1.740400    0.001100
H     -0.317800    1.990300   -0.873300
H     -0.299400    1.978000    0.910000
H     -2.644700    0.926900    0.035800
H     -3.113800   -0.788000    0.028700
