14
gdb_1881
O     -0.065600    1.444700    0.016300
C     -0.001300    0.027100    0.017100
C      0.586000   -0.523700    1.344900
N     -0.586700   -0.674500    2.178500
C     -1.781300   -0.692700    1.506700
O     -2.872700   -0.867600    1.998800
C     -1.444800   -0.481700    0.026400
H      0.832600    1.789800    0.038400
H      0.573600   -0.338300   -0.843500
H      1.106300   -1.479100    1.180600
H      1.305600    0.182700    1.774600
H     -0.553700   -0.873000    3.165300
H     -2.129000    0.228400   -0.439000
H     -1.541100   -1.442100   -0.490700
