14
gdb_7945
O      0.143100    1.317800    0.352500
C     -0.022700   -0.038100    0.027600
C     -1.489300   -0.438500   -0.171600
C     -1.469500   -1.397600   -1.351000
N     -2.422100   -2.165200   -1.675600
N     -0.224400   -1.229300   -1.978400
C      0.629600   -0.370900   -1.319700
O      1.688000    0.055700   -1.716400
H      1.018700    1.568900    0.027500
H      0.452100   -0.689800    0.781000
H     -1.963400   -0.894500    0.696900
H     -2.061900    0.453700   -0.446000
H     -2.207500   -2.716900   -2.508200
H      0.013500   -1.641200   -2.869600
