17
gdb_14647
C      0.076300    1.442700   -0.069400
C     -0.014000   -0.010500   -0.069200
C     -0.076000   -1.213000   -0.080400
C     -0.197400   -2.665200   -0.072800
C     -1.573000   -3.129800    0.458100
N     -1.696000   -4.577000    0.512600
C     -2.054500   -5.317900   -0.569700
O     -2.330400   -4.862600   -1.659500
H      0.320200    1.826300   -1.066300
H     -0.870900    1.900100    0.237100
H      0.851600    1.795400    0.620000
H     -0.072100   -3.066900   -1.084900
H      0.595300   -3.109600    0.543300
H     -1.743800   -2.725600    1.459300
H     -2.357400   -2.751500   -0.200900
H     -1.432200   -5.061300    1.355400
H     -2.078400   -6.402200   -0.340400
