11
gdb_3919
O     -0.048100   -0.029900   -0.001600
C      0.023200    1.174400    0.006600
C      1.265500    1.964700   -0.000600
N      2.478100    1.394300   -0.018100
N      3.322400    2.425300   -0.019200
C      2.710200    3.639900   -0.003100
C      1.360300    3.379800    0.009500
H     -0.892800    1.808300    0.020900
H      4.312500    2.239000   -0.031400
H      3.273400    4.559200   -0.002000
H      0.554900    4.096300    0.023800
