24
gdb_9767
C      0.087600    1.627800    0.138200
C      0.017100    0.096300    0.173100
C     -1.376600   -0.521200   -0.055000
C     -2.355900   -0.090000    1.053700
C     -1.957000   -0.197800   -1.454200
C     -2.986000   -1.313300   -1.750200
C     -2.552000   -2.530600   -0.881400
C     -1.293900   -2.066900   -0.112800
H      1.119600    1.968100    0.271000
H     -0.269100    2.024600   -0.817900
H     -0.510600    2.085000    0.932100
H      0.696600   -0.304500   -0.590900
H      0.405600   -0.258100    1.137700
H     -2.533600    0.989700    1.039700
H     -3.328800   -0.579500    0.945800
H     -1.964300   -0.352600    2.043100
H     -2.396100    0.802700   -1.513500
H     -1.144700   -0.234000   -2.191100
H     -3.995800   -0.989900   -1.480000
H     -3.016900   -1.556500   -2.815900
H     -3.350800   -2.812100   -0.188600
H     -2.345800   -3.417000   -1.487700
H     -0.391600   -2.353100   -0.667100
H     -1.212500   -2.519000    0.881200
