13
gdb_2082
O      0.005500   -0.003900    0.263200
C     -0.014500    1.164600   -0.033800
C     -1.320600    1.946600   -0.163000
O     -1.216000    3.101100   -0.978800
C     -0.060200    3.841200   -0.695000
O      1.107600    3.133000   -1.009700
C      1.265600    1.982200   -0.197400
H     -2.090000    1.298200   -0.587300
H     -1.634800    2.217300    0.861700
H     -0.080900    4.723000   -1.336900
H     -0.050100    4.141800    0.371100
H      1.599200    2.262000    0.818700
H      2.041100    1.355100   -0.642100
