13
gdb_694
O     -0.094200    1.471100   -0.038300
C     -0.025400    0.063800    0.024200
C      0.205200   -0.640400    1.395000
N     -1.092100   -1.397700    1.278800
C     -2.134200   -0.358900    1.236900
C     -1.379300   -0.621100   -0.003700
H      0.803400    1.818100   -0.060000
H      0.646500   -0.335700   -0.745900
H      1.050700   -1.331300    1.408800
H      0.253100    0.021100    2.266300
H     -3.139200   -0.764800    1.295000
H     -1.981300    0.572600    1.776300
H     -1.827900   -1.093000   -0.871300
