17
gdb_14842
C      0.161500    1.540000    0.037300
C      0.054600    0.012100    0.028900
C      0.526100   -0.574300   -1.288400
O      1.929500   -0.327200   -1.545100
C      2.242900   -1.726700   -1.586300
C      0.753800   -2.119700   -1.385700
C      0.432300   -2.932200   -0.226800
N      0.184100   -3.578400    0.699400
H      1.192500    1.851800   -0.150900
H     -0.473100    1.987300   -0.735700
H     -0.149000    1.947500    1.003200
H      0.648900   -0.414200    0.844800
H     -0.983100   -0.303500    0.196100
H     -0.085700   -0.193400   -2.117000
H      2.670800   -2.031700   -2.547400
H      2.912700   -2.031000   -0.774900
H      0.298200   -2.564300   -2.272400
