11
gdb_90
O     -0.001000    0.018500   -0.201100
C     -0.014100    1.196600    0.002100
C     -1.135400    2.229800    0.219600
C     -0.035000    3.291000    0.530500
C      1.084700    2.259500    0.189900
H     -1.716400    2.417700   -0.689000
H     -1.833900    1.984200    1.024400
H     -0.055300    4.175900   -0.106700
H     -0.025400    3.614000    1.572800
H      1.810700    2.032900    0.975800
H      1.636000    2.462600   -0.733800
