14
gdb_20459
C     -0.028800    1.543900    0.190900
N      1.308300    1.950700   -0.335300
C      2.183800    0.750000   -0.524000
C      1.226200   -0.393900   -0.367500
C     -0.001400    0.057500    0.022800
N     -0.727200   -1.063800    0.189900
N      0.025700   -2.164100   -0.103400
N      1.219700   -1.748100   -0.432500
H     -0.134700    1.830400    1.246800
H     -0.830400    2.048900   -0.359300
H      1.171500    2.387800   -1.237100
H      2.679200    0.789900   -1.499400
H      2.973600    0.729000    0.238300
H     -1.688200   -1.195500    0.460400
