15
gdb_9243
C      0.000900    1.394400   -0.019700
O      0.008900   -0.015000    0.092200
C     -1.278700   -0.606800    0.026100
C     -1.778200   -0.771100   -1.419500
C     -1.201800   -1.902700    0.702800
C     -1.168700   -2.979700    1.247400
C     -1.126400   -4.197000    1.864700
N     -1.094200   -5.233000    2.389200
H      1.033400    1.723300    0.113600
H     -0.352200    1.738000   -1.002000
H     -0.624000    1.857400    0.758900
H     -2.000100    0.014700    0.584500
H     -1.871700    0.206700   -1.898600
H     -1.073000   -1.380200   -1.989300
H     -2.758400   -1.255100   -1.433100
