18
gdb_5903
C      0.051100    1.568300    0.002800
C      0.045000    0.024400    0.021600
C      0.821600   -0.495400    1.250700
C     -1.427600   -0.508300    0.049900
C     -2.189900   -0.086800    1.218400
C     -2.816500    0.262500    2.183500
C      0.671200   -0.482600   -1.203500
C      1.176100   -0.902900   -2.210500
H      1.076500    1.946200   -0.027500
H     -0.477600    1.950500   -0.875200
H     -0.440100    1.955200    0.899800
H      0.344100   -0.145600    2.170100
H      0.843900   -1.588900    1.265000
H      1.853600   -0.135200    1.231200
H     -1.935600   -0.172400   -0.861500
H     -1.401400   -1.603100    0.003000
H     -3.378800    0.565300    3.031800
H      1.629100   -1.270000   -3.098100
