19
gdb_4014
C      0.113200    1.584100   -0.093300
C     -0.024200    0.060000   -0.058900
C      0.721400   -0.623700   -1.221100
C      0.626500   -2.124700   -1.181500
C      1.304900   -2.902300   -0.064000
O      2.238900   -3.848400   -0.547300
N     -0.036000   -2.679200   -2.123700
O     -0.083400   -4.088800   -1.965900
H      1.162600    1.889500   -0.017700
H     -0.284800    1.995700   -1.027200
H     -0.430100    2.049300    0.734800
H      0.352300   -0.318500    0.899800
H     -1.083200   -0.220600   -0.105800
H      0.318500   -0.272800   -2.176100
H      1.782000   -0.338000   -1.186300
H      1.862700   -2.215300    0.578400
H      0.527400   -3.376400    0.556700
H      1.739700   -4.429200   -1.134900
H     -0.564500   -4.365400   -2.752100
