18
gdb_5951
C     -0.018700    1.590400    0.068900
C      0.042600    0.061300    0.085300
C      0.756400   -0.486400    1.323400
C     -1.371800   -0.530700   -0.021000
O     -2.108500   -0.117600    1.116700
O      0.657800   -0.447900   -1.137400
C      1.932100   -0.146400   -1.427100
O      2.473300   -0.543300   -2.418200
H      0.965800    2.043900    0.211200
H     -0.430500    1.942600   -0.881400
H     -0.671900    1.930200    0.875800
H      0.151700   -0.273500    2.207700
H      0.879400   -1.570300    1.240900
H      1.741500   -0.034000    1.464900
H     -1.828300   -0.175900   -0.956000
H     -1.287600   -1.625200   -0.079900
H     -2.993700   -0.486200    1.054500
H      2.426200    0.493100   -0.675500
