17
gdb_7969
C     -0.117200    1.546200    0.017100
C      0.061800    0.027700   -0.022400
C      0.885600   -0.515900   -1.207200
C      1.952800   -1.375100   -0.564800
N      2.801600   -2.083900   -1.353400
C      1.896700   -1.342600    0.790800
C      0.807100   -0.487800    1.234500
O      0.495100   -0.191800    2.371200
H      0.851000    2.056400   -0.044100
H     -0.741100    1.902200   -0.809000
H     -0.586600    1.832800    0.961700
H     -0.929200   -0.441900   -0.011600
H      0.290200   -1.103200   -1.916200
H      1.352900    0.292600   -1.785600
H      2.878800   -1.846400   -2.328100
H      3.611000   -2.520100   -0.943400
H      2.562700   -1.855400    1.472600
