15
gdb_15754
O      0.441500   -0.113300    0.335800
C      0.248400    0.923100   -0.240400
C      0.981500    2.218000    0.090200
C      1.348200    2.989700   -1.170200
O      0.535300    3.159500   -2.057900
C      2.740700    3.514900   -1.284500
C      3.464900    3.181200   -2.559800
N      2.994100    4.533100   -2.311700
H     -0.487300    1.019000   -1.064200
H      0.274900    2.847000    0.651200
H      1.835900    2.005100    0.735700
H      3.310200    3.615000   -0.365800
H      4.541100    3.041300   -2.520600
H      2.932200    2.564300   -3.278100
H      2.114300    4.669600   -2.811800
