16
gdb_18373
O     -0.042000    1.443700   -0.009800
C     -0.002500    0.038000    0.061800
C      0.511400   -0.538600    1.397300
O     -0.030700   -1.854500    1.464700
C     -1.320500   -1.823500    0.879000
C     -2.425500   -1.135400    1.707900
O     -2.349900    0.055300    0.891400
C     -1.407500   -0.561200   -0.011000
H      0.862100    1.768500   -0.059900
H      0.580800   -0.396800   -0.766000
H      1.599500   -0.624900    1.459900
H      0.154700    0.099300    2.218800
H     -1.537100   -2.811900    0.473200
H     -3.414000   -1.607700    1.646000
H     -2.172700   -0.947000    2.757500
H     -1.804700   -0.637200   -1.027100
