14
gdb_19836
O     -0.035500    1.437700    0.055700
C      1.263700    0.817900   -0.010600
C      2.124000    0.856500    1.191800
C      1.804900    0.221400    2.326700
C      0.565400   -0.572000    2.473100
O     -0.699600    0.115900    2.417700
C     -0.346500   -0.691600    1.308700
C      0.012100    0.022100    0.033300
H      1.760300    0.965100   -0.968300
H      3.060800    1.400500    1.116600
H      2.482100    0.248400    3.175200
H      0.585500   -1.373300    3.210100
H     -0.931300   -1.603500    1.191400
H     -0.347600   -0.441600   -0.884900
