16
gdb_8117
O     -0.082200    1.417500   -0.037700
C     -0.130600    0.023400    0.007400
C     -0.471200   -0.779300    1.237900
C     -1.563500   -0.073600    2.027900
O     -1.129100    1.178500    2.558200
C     -2.496100   -0.056000    0.769000
C     -1.393600   -0.782200   -0.008100
O     -1.622800   -1.839500   -0.868700
H     -0.283200    1.734300    0.854400
H      0.661700   -0.431900   -0.584700
H      0.190300   -1.540600    1.633000
H     -1.974000   -0.699400    2.828300
H     -1.892100    1.634000    2.929600
H     -3.387800   -0.670700    0.906000
H     -2.775300    0.933000    0.392500
H     -1.625100   -1.499800   -1.770400
