14
gdb_19641
O     -0.156300    0.050700    0.158800
C      0.023200    1.225800   -0.072900
C      1.305800    1.901600   -0.019400
C      2.754900    1.472900    0.304000
C      3.055800    2.868300    0.831900
C      3.288100    2.544800   -0.635700
C      1.838300    3.016100   -0.957000
C      1.609800    3.335200    0.487600
H     -0.821200    1.899700   -0.354700
H      3.175500    0.517300    0.581200
H      3.754500    3.185300    1.592800
H      4.199200    2.566200   -1.216300
H      1.361300    3.402400   -1.847800
H      0.917900    4.021900    0.956500
