16
gdb_17005
C      0.043300    1.459900   -0.007500
C      1.391300    0.762900   -0.042000
C      1.649400    0.061400    1.298100
O      0.347800   -0.595000    1.279000
C      0.097500   -0.029600   -0.014200
C      0.045700   -0.822600   -1.296200
O      0.951400   -0.129500   -2.166200
C      2.014200    0.445900   -1.379500
H     -0.267800    1.966900    0.899600
H     -0.257800    1.930100   -0.937400
H      2.459100   -0.676000    1.251200
H      1.774000    0.693200    2.184400
H      0.370400   -1.853700   -1.088800
H     -0.919900   -0.847800   -1.809000
H      2.382600    1.303200   -1.950200
H      2.842500   -0.267900   -1.247300
