11
gdb_178
C     -0.035200    1.494300    0.016300
C      0.006100   -0.014100    0.044100
N      0.077300   -0.714900    1.122800
O      0.110400    0.107400    2.246800
C     -0.034500   -0.736600   -1.182600
C     -0.072200   -1.283300   -2.254600
H      0.857900    1.902800    0.499500
H     -0.095500    1.863400   -1.007100
H     -0.896600    1.856300    0.586200
H      0.162400   -0.531500    2.966100
H     -0.104300   -1.785300   -3.189900
