15
gdb_4177
C     -0.046600    1.601000   -0.062500
C      0.025400    0.080900    0.008900
C      0.706900   -0.672700   -1.163600
O      2.063100   -0.238400   -1.214000
C      1.719800   -1.278000   -0.268700
C      1.092600   -0.585200    0.899300
N      1.332200   -0.694700    2.136600
O      0.448500    0.093400    2.896000
H      0.922900    2.011900   -0.354400
H     -0.794800    1.920400   -0.795500
H     -0.319600    2.014400    0.911500
H     -0.952800   -0.354400    0.246800
H      0.265300   -1.063600   -2.072400
H      2.270100   -2.208000   -0.321100
H      0.744000   -0.080100    3.796400
