20
gdb_9271
C     -0.005500    1.531300    0.153500
C     -0.045300    0.011100   -0.001900
N     -1.404300   -0.527600   -0.109900
C     -2.064400   -0.117200   -1.343000
C     -1.433100   -1.973100    0.066600
C     -2.816400   -2.454300    0.557900
C     -2.837500   -3.893800    0.801100
N     -2.831900   -5.034000    0.989300
H      1.017300    1.853400    0.371100
H     -0.323600    2.053900   -0.752800
H     -0.651800    1.848200    0.977400
H      0.578900   -0.288700   -0.866700
H      0.412500   -0.441200    0.884300
H     -1.534500   -0.471000   -2.248100
H     -3.085300   -0.506500   -1.378900
H     -2.135700    0.971100   -1.392900
H     -1.162500   -2.522500   -0.853600
H     -0.693900   -2.246400    0.824600
H     -3.072200   -1.925200    1.481500
H     -3.597400   -2.218300   -0.171900
