16
gdb_8871
C     -0.083700    1.568000   -0.314700
C     -0.119300    0.044800   -0.176100
C      0.827600   -0.637000   -1.193500
O      2.149900   -0.183300   -1.053000
C      0.784300   -2.143000   -1.027500
O      1.737900   -2.767900   -0.613900
C     -0.482900   -2.917600   -1.399600
O     -1.461300   -2.408400   -1.878400
H      0.935900    1.940000   -0.191400
H     -0.443300    1.881200   -1.300900
H     -0.719700    2.039400    0.440100
H      0.194500   -0.247900    0.833600
H     -1.135500   -0.330400   -0.331900
H      0.465800   -0.399400   -2.205700
H      2.654700   -0.926300   -0.690100
H     -0.391200   -4.005500   -1.200100
