18
gdb_17500
C     -0.057600    1.554600    0.131500
C      0.083800    0.067300    0.043200
N     -0.850900   -0.869300    0.711500
C      0.607500   -0.936500    0.997400
C      1.309700   -1.697900   -0.166200
N      0.281000   -2.096800   -1.164100
C      0.798500   -0.707800   -1.141300
C      1.429200   -0.058100   -2.332800
H      0.865800    2.066100   -0.161300
H     -0.861200    1.920500   -0.518900
H     -0.292800    1.859800    1.157100
H     -1.264200   -0.347700    1.486800
H      0.997200   -0.812900    2.000000
H      2.270700   -2.193700   -0.110300
H      0.787500   -2.572700   -1.913000
H      0.675300    0.254000   -3.065700
H      2.005800    0.829600   -2.050700
H      2.114400   -0.751300   -2.833100
