17
gdb_2845
C     -0.231300    1.569800    0.172000
C      0.174100    0.116300   -0.100400
C      0.828500   -0.522700    1.109800
C      0.035200   -1.234300    2.152800
C      0.998100   -2.035300    1.279200
C      0.441600   -2.992100    0.299200
O      0.983600   -4.018400   -0.033800
H      0.639100    2.179200    0.438900
H     -0.696000    2.021000   -0.709700
H     -0.945300    1.631500    0.999800
H     -0.710900   -0.455600   -0.400100
H      0.865300    0.080100   -0.951800
H      1.689000    0.032400    1.477200
H      0.291300   -1.126900    3.200500
H     -1.024700   -1.381000    1.963900
H      1.925400   -2.372600    1.729500
H     -0.552300   -2.712100   -0.120000
