15
gdb_14078
C     -0.043100    1.542600   -0.067200
C     -0.031500    0.042500    0.057100
O      1.235700   -0.619700   -0.119900
C      0.642300   -0.656800    1.153300
C      1.280100   -0.151800    2.465800
N      0.799900   -1.406000    3.060100
C      0.229800   -1.928600    1.917000
O     -0.356600   -2.946800    1.675700
H      0.817000    1.986500    0.440600
H     -0.009500    1.838300   -1.120600
H     -0.960500    1.953500    0.367600
H     -0.859700   -0.484800   -0.417800
H      2.369500   -0.057600    2.428100
H      0.837200    0.753400    2.894000
H      0.790400   -1.729100    4.014700
