15
gdb_16830
O     -0.021800    1.420600    0.006700
C      0.021200    0.013500   -0.091200
C      0.809200   -0.692400    1.045600
C      0.063200   -2.001100    1.320100
O      0.529600   -3.027400    1.742900
C     -1.354300   -1.808000    0.853300
N     -1.919000   -0.503100    1.318100
C     -1.370000   -0.616700   -0.039300
H     -0.549300    1.620000    0.790800
H      0.485200   -0.203000   -1.058700
H      1.856400   -0.883100    0.807400
H      0.778800   -0.076800    1.951100
H     -2.008000   -2.663600    0.733200
H     -2.933300   -0.575800    1.284700
H     -2.033000   -0.546000   -0.894800
