16
gdb_10978
C     -0.037800    1.491400   -0.030000
C     -0.051500   -0.008700    0.044500
O      0.328300   -0.718700   -1.189300
C     -0.245500   -1.882300   -0.518100
C      0.666400   -2.028700    0.707700
C      0.797900   -0.759800    1.093500
C     -1.342800   -0.889400    0.014700
O     -2.024300   -1.093000    1.215100
H      0.980900    1.862400   -0.179700
H     -0.658700    1.845600   -0.857300
H     -0.424100    1.915700    0.902000
H     -0.443000   -2.731400   -1.171300
H      1.054600   -2.942400    1.132400
H      1.330800   -0.320200    1.923800
H     -2.008300   -0.575300   -0.798300
H     -2.897100   -1.443600    1.015900
