16
gdb_13085
O      0.063700    1.407500   -0.194900
C      0.073300    0.017800    0.024600
C     -0.019000   -0.484900    1.483200
O     -1.265400   -1.156700    1.210800
C     -1.319000   -0.637800   -0.136300
C     -2.493600    0.319300   -0.365300
C     -3.776600   -0.370500   -0.340600
C     -4.824800   -0.957900   -0.327800
H      0.960800    1.741900   -0.103700
H      0.855000   -0.475500   -0.565400
H      0.759200   -1.180900    1.818400
H     -0.131400    0.324500    2.216200
H     -1.362500   -1.455000   -0.866000
H     -2.466200    1.108500    0.392800
H     -2.348900    0.815700   -1.333100
H     -5.755200   -1.468600   -0.309100
