13
gdb_970
C      0.114500    1.506200   -0.002400
C     -0.036500    0.031000   -0.039200
C     -1.119300   -0.794400    0.033300
O     -2.406900   -0.363300    0.167900
C     -0.637600   -2.142300   -0.057700
C      0.711400   -2.035900   -0.179500
O      1.093700   -0.737700   -0.170600
H      0.735000    1.834200    0.840100
H      0.573400    1.894600   -0.919500
H     -0.872800    1.961900    0.103900
H     -2.987600   -1.128400    0.194800
H     -1.217700   -3.052600   -0.034800
H      1.502200   -2.761000   -0.278300
