22
gdb_7191
C     -0.116300    1.648300    0.012000
C     -0.016200    0.113800    0.002800
C      0.683500   -0.412200   -1.263400
C     -0.040700   -0.115200   -2.571700
O      0.658300   -0.791000   -3.608500
C      0.707500   -0.425700    1.249700
C      0.008300   -0.142800    2.574600
O      0.726900   -0.829800    3.590600
H      0.882100    2.102400    0.005000
H     -0.658300    2.024900   -0.860200
H     -0.641600    2.015500    0.898400
H     -1.039800   -0.291600    0.010400
H      1.700800   -0.004100   -1.324600
H      0.791900   -1.501000   -1.192300
H     -1.085400   -0.463700   -2.504400
H     -0.070700    0.968000   -2.763400
H      0.238000   -0.572500   -4.445200
H      0.814300   -1.513700    1.164900
H      1.725800   -0.018200    1.295800
H     -0.017800    0.938200    2.778500
H     -1.037500   -0.490700    2.523500
H      0.322700   -0.620400    4.437500
