19
gdb_7977
C     -0.437000    1.542100   -0.011200
C      0.081600    0.115800   -0.076000
O      1.155700    0.042800   -1.051400
C      2.129500   -0.721400   -0.483900
C      3.287400   -1.023000   -1.373400
N      1.985000   -1.100400    0.720300
C      0.725100   -0.507400    1.207000
C      1.015800    0.451300    2.364700
H      0.338200    2.235500    0.324400
H     -0.778600    1.862700   -0.999300
H     -1.284300    1.609100    0.678200
H     -0.715000   -0.542800   -0.444100
H      3.746000   -0.093200   -1.724700
H      4.024300   -1.613000   -0.829700
H      2.953800   -1.574200   -2.258200
H      0.081600   -1.310200    1.583900
H      1.674400    1.267200    2.052000
H      0.095300    0.883100    2.770100
H      1.521400   -0.095000    3.165000
