16
gdb_7070
C      0.022400    1.688600    0.194700
C     -0.027000    0.164500    0.041600
C      0.765700   -0.521200    1.178900
C      0.784200   -1.978500    1.078100
N      0.793100   -3.131100    1.002200
N     -1.391800   -0.335300   -0.007000
C     -1.977900   -0.764500   -1.162300
O     -1.443900   -0.775600   -2.249100
H      1.055800    2.049400    0.192800
H     -0.508300    2.163600   -0.633600
H     -0.447000    2.009200    1.132000
H      0.411400   -0.117800   -0.918800
H      1.797000   -0.152500    1.174800
H      0.340800   -0.244300    2.152500
H     -1.946600   -0.331600    0.835400
H     -3.016300   -1.108300   -0.991400
