20
gdb_13267
C     -0.459200    1.712900   -0.214000
C      0.011800    0.278600    0.089200
C      0.776300   -0.317000   -1.002000
C      1.402800   -0.783400   -1.921100
C      2.167500   -1.374800   -3.000000
C      3.685700   -1.687300   -2.785100
C      3.494100   -2.990000   -3.605000
C      1.968500   -2.888500   -3.343700
H      0.394500    2.370100   -0.400900
H     -1.098400    1.731900   -1.100900
H     -1.027200    2.116300    0.629900
H      0.619500    0.280200    1.003700
H     -0.859400   -0.351700    0.311400
H      2.048800   -0.780300   -3.913500
H      4.403000   -0.946600   -3.145400
H      3.889900   -1.895400   -1.731800
H      3.735000   -2.842600   -4.661900
H      4.007900   -3.887500   -3.254900
H      1.669900   -3.448100   -2.453800
H      1.283700   -3.128800   -4.160000
