20
gdb_8878
C     -0.288500    1.564600   -0.416400
C     -0.902400    0.195500   -0.693900
C     -1.204100   -0.589700    0.567800
O     -0.994100   -0.151900    1.676500
C     -1.770900   -2.013200    0.408800
C     -2.890100   -2.273300    1.420500
O     -2.172800   -2.192600   -0.936700
C     -2.326000   -3.536700   -1.334100
H     -0.097500    2.097300   -1.352200
H     -0.954400    2.174600    0.199400
H      0.655700    1.470000    0.126600
H     -1.836800    0.271700   -1.263900
H     -0.255700   -0.424000   -1.328600
H     -0.923900   -2.689100    0.630100
H     -3.772100   -1.677900    1.165300
H     -3.175700   -3.328000    1.440100
H     -2.547100   -1.982800    2.415100
H     -2.527400   -3.532500   -2.408100
H     -1.410600   -4.119500   -1.146700
H     -3.162600   -4.033900   -0.824000
