15
gdb_4862
C      0.041500    1.317800   -0.030000
O     -0.066300   -0.108200   -0.100000
C     -1.304200   -0.570500   -0.014900
N     -2.417100    0.073600    0.120000
C     -3.368800   -0.951100    0.148100
C     -2.766900   -2.154000    0.028200
C     -3.212900   -3.566300   -0.012000
O     -1.402300   -1.911000   -0.080200
H      1.106100    1.536200   -0.111700
H     -0.511600    1.784800   -0.849600
H     -0.355600    1.686000    0.919900
H     -4.420800   -0.737800    0.254200
H     -2.934200   -4.053700   -0.953500
H     -2.776500   -4.154200    0.803800
H     -4.300600   -3.607300    0.083300
