20
gdb_8008
C     -0.127800    1.543200   -0.035100
C      0.084700    0.034400    0.064200
C      0.677400   -0.603600   -1.214600
C      1.397700   -1.891600   -0.771400
O      2.750100   -1.835200   -1.226200
C      1.351000   -1.880700    0.793100
O      2.511100   -2.441000    1.374700
C      1.067800   -0.415500    1.155600
H      0.820300    2.058400   -0.228700
H     -0.815400    1.795400   -0.849800
H     -0.546700    1.950100    0.891300
H     -0.886400   -0.438300    0.270600
H     -0.075700   -0.781100   -1.986900
H      1.434500    0.061000   -1.646000
H      0.915500   -2.793900   -1.168800
H      3.144400   -2.692400   -1.028700
H      0.520000   -2.508600    1.133400
H      3.251600   -1.933900    1.019300
H      1.999500    0.163000    1.075300
H      0.688600   -0.292900    2.173800
