18
gdb_17696
C      0.071100    1.544300    0.034700
C     -0.024400    0.054400   -0.005900
C      0.889800   -1.009200   -0.577700
C      0.510800   -1.025400    0.911400
C     -0.769600   -1.889900    0.857200
C     -0.514400   -3.026000   -0.164100
C     -0.256100   -1.868000   -1.159800
C     -1.202000   -0.929000   -0.316400
H      1.087200    1.861500    0.295400
H     -0.175500    1.990500   -0.936200
H     -0.610100    1.971600    0.780300
H      1.914800   -0.917500   -0.914500
H      1.249500   -0.945900    1.699100
H     -1.346400   -2.033000    1.770300
H      0.291200   -3.740500    0.033200
H     -1.438000   -3.563300   -0.405000
H     -0.325500   -1.989500   -2.240100
H     -2.230400   -0.687300   -0.575600
