18
gdb_8526
C     -0.153400    1.580100   -0.044000
C     -0.034400    0.063800   -0.020000
O     -1.287900   -0.549000   -0.273800
C      1.195100   -0.604600   -0.685000
C      2.113600   -0.290800    0.548200
C      2.580000   -1.754800    0.663300
C      1.096500   -1.854400    0.260400
C      0.700000   -0.619400    1.145400
H      0.795300    2.069000    0.193200
H     -0.463300    1.928800   -1.037800
H     -0.906800    1.913400    0.676700
H     -1.651200   -0.165300   -1.078800
H      1.503500   -0.609600   -1.733000
H      2.685300    0.623400    0.711500
H      3.316800   -2.096000   -0.071500
H      2.845000   -2.110200    1.664600
H      0.482700   -2.736500    0.089100
H      0.431800   -0.640900    2.203300
