18
gdb_10193
C      0.083000    1.304300   -0.570800
N     -0.136700    0.204200    0.356900
C     -1.373800   -0.552200    0.202000
C     -1.273400   -1.861200   -0.618800
C     -0.901000   -1.652200   -2.089100
O     -0.805400   -2.876800   -2.792100
C     -1.925600   -0.873500    1.537100
N     -2.356600   -1.149600    2.573100
H      1.036100    1.782200   -0.328000
H      0.104800    1.027700   -1.637800
H     -0.701500    2.056800   -0.436300
H      0.662600   -0.414200    0.413700
H     -2.103000    0.109900   -0.283200
H     -0.536800   -2.524400   -0.150400
H     -2.239500   -2.379900   -0.561200
H     -1.620000   -0.965400   -2.565800
H      0.087700   -1.191400   -2.171600
H     -1.674300   -3.291300   -2.790300
