10
gdb_898
O      0.077200    1.320600    0.007100
C     -0.052000   -0.005700    0.001100
C     -1.108800   -0.812100    0.003200
O     -0.630900   -2.131400   -0.006100
C      0.729200   -2.071200   -0.013600
N      1.570800   -3.001900   -0.023300
O      1.105800   -0.746400   -0.009300
H      1.018200    1.534800    0.001300
H     -2.169900   -0.656900    0.010100
H      1.103800   -3.904900   -0.025200
