11
gdb_406
O     -0.048500    1.374700   -0.069800
C     -0.001900   -0.018200   -0.003400
C     -0.469400   -0.709300    1.267100
C     -1.343000   -0.703400    0.040800
C      1.072300   -0.629600   -0.758300
N      1.952000   -1.097300   -1.345900
H      0.734700    1.726200    0.370100
H      0.017300   -1.632600    1.558200
H     -0.736600   -0.042900    2.079000
H     -2.192100   -0.030500    0.026800
H     -1.464400   -1.622000   -0.519700
