16
gdb_8653
C     -0.034000    1.560200    0.002400
C      0.010400    0.011000   -0.026000
C      0.736700   -0.523400    1.236600
O      0.067400   -0.023200    2.381700
C     -1.445400   -0.490100    0.000500
O     -1.977200   -1.124800   -0.868800
C      0.718400   -0.470600   -1.207100
C      1.335000   -0.858300   -2.162100
H      0.984200    1.958400    0.020800
H     -0.538200    1.945200   -0.887200
H     -0.557600    1.906500    0.895800
H      0.734600   -1.622500    1.212000
H      1.783000   -0.187100    1.197200
H      0.483400   -0.395600    3.164200
H     -1.982900   -0.192500    0.924000
H      1.860900   -1.206700   -3.016500
