24
gdb_8948
C     -0.018800    1.611300    0.021400
C     -0.057100    0.081100   -0.065700
C      0.734800   -0.509600   -1.248100
C      2.210300   -0.082600   -1.225000
C      0.630400   -2.048000   -1.305100
C     -0.805700   -2.581200   -1.306000
O      1.304500   -2.453200   -2.496500
C      1.799600   -3.769400   -2.481700
H      0.987500    1.987500    0.225400
H     -0.361800    2.068500   -0.913800
H     -0.671900    1.969000    0.823700
H      0.326200   -0.345200    0.872700
H     -1.104200   -0.230800   -0.137000
H      0.284600   -0.137900   -2.180600
H      2.760700   -0.580300   -2.024900
H      2.319900    0.997000   -1.357000
H      2.678300   -0.349700   -0.268900
H      1.168100   -2.464700   -0.434500
H     -1.393000   -2.099900   -2.094900
H     -0.817000   -3.659800   -1.487400
H     -1.301400   -2.409400   -0.347200
H      2.495100   -3.934300   -1.643400
H      1.003300   -4.526200   -2.417400
H      2.339800   -3.921100   -3.420100
