16
gdb_4458
C      0.175400    1.483900    0.012100
C     -0.042300    0.017700   -0.021100
C     -1.110200   -0.812200    0.032000
C     -2.561500   -0.490500    0.148400
N     -0.674500   -2.144100   -0.034200
C      0.612200   -2.043100   -0.131300
N      1.529900   -3.052400   -0.300800
O      1.094900   -0.783300   -0.130400
H      0.798500    1.785800    0.862800
H      0.669100    1.844500   -0.898400
H     -0.784400    1.998300    0.100100
H     -3.118300   -0.885200   -0.708600
H     -2.991400   -0.946700    1.047000
H     -2.730500    0.588100    0.198200
H      1.166500   -3.954300   -0.030100
H      2.442900   -2.857800    0.084200
