17
gdb_2212
C     -0.130900    1.556500    0.116500
C      0.050900    0.062300    0.083500
C     -1.185200   -0.875300    0.128500
C     -0.460600   -1.768300    1.184500
C      0.773200   -0.828000    1.148200
C      1.763700   -1.126000    0.014600
O      0.993100   -0.358700   -0.938400
H      0.830700    2.065300    0.233500
H     -0.583900    1.900000   -0.820900
H     -0.788400    1.853400    0.940000
H     -2.092900   -0.397100    0.507400
H     -1.405400   -1.342600   -0.833600
H     -0.963400   -1.782400    2.154100
H     -0.264700   -2.802400    0.887800
H      1.172400   -0.460600    2.093500
H      2.765500   -0.697700    0.152000
H      1.866600   -2.178500   -0.280700
