15
gdb_15134
O     -0.106400    0.384000   -0.279200
C      0.413500    1.450400   -0.370200
O      0.994000    2.043600    0.728000
C      1.446000    3.332200    0.631700
N      1.090900    4.124600   -0.275700
C      1.617100    5.458700   -0.300400
C      2.935500    5.882900    0.306100
C      2.777200    5.792200   -1.197200
H      0.514300    2.059500   -1.277200
H      2.120200    3.543700    1.464100
H      0.816900    6.193000   -0.282200
H      2.988900    6.862800    0.767300
H      3.564600    5.139200    0.781400
H      3.266500    4.961400   -1.694100
H      2.732900    6.704400   -1.781200
