13
gdb_20631
C     -0.000400    1.506500    0.005600
C     -0.054700    0.013200    0.072500
C     -1.142600   -0.739000   -0.199700
C     -1.074600   -2.168000   -0.101300
N     -2.024600   -2.984900   -0.330100
N      0.223900   -2.682900    0.301500
N      1.210600   -2.034000    0.550200
O      1.119300   -0.519300    0.440400
H      0.763700    1.825400   -0.710700
H     -0.967800    1.912000   -0.296200
H      0.275200    1.919100    0.981500
H     -2.075400   -0.278800   -0.493900
H     -1.702400   -3.943100   -0.184400
