16
gdb_3247
C     -0.052100    1.499600   -0.053300
C      1.269800    0.762100    0.016300
C     -0.023200    0.004500   -0.008400
C     -0.541600   -0.959400    1.090700
C     -0.956000   -1.917800   -0.037100
N     -1.922800   -1.178600   -0.887300
C     -0.459800   -0.976000   -1.077900
H     -0.385800    2.027400    0.834200
H     -0.325900    1.980500   -0.986600
H      1.892100    0.744200   -0.873400
H      1.828000    0.792900    0.946900
H      0.263000   -1.354100    1.717000
H     -1.361300   -0.598800    1.717900
H     -0.947400   -3.000300   -0.018600
H     -2.224100   -1.826700   -1.616200
H      0.010700   -1.169400   -2.035000
