16
gdb_11129
O      0.442600    1.200300   -0.016600
C      0.242500   -0.192500    0.099600
C     -1.158000   -0.573400   -0.343600
C     -1.704800   -1.944500    0.105800
C     -2.702800   -1.116800    0.934300
O     -2.140200    0.134500    0.476900
C     -4.165400   -1.212800    0.543600
O     -4.699300   -2.223500    0.168800
H     -0.280700    1.615400    0.469300
H      0.985900   -0.682600   -0.539500
H      0.403800   -0.542000    1.133300
H     -1.301800   -0.323200   -1.401100
H     -2.170100   -2.559200   -0.664500
H     -1.006600   -2.549900    0.685800
H     -2.628500   -1.223100    2.027100
H     -4.709900   -0.245600    0.626800
