12
gdb_4611
N      0.027900    1.417600    0.157300
C     -0.030900    0.029000    0.044000
C     -1.175700   -0.694800   -0.000000
O     -1.161400   -2.051500   -0.034600
C      0.025400   -2.757200   -0.029100
O      0.011500   -3.959200   -0.055500
C      1.214700   -1.898100    0.003700
N      1.193000   -0.609500    0.038200
H      0.907800    1.782600   -0.181000
H     -0.760100    1.913900   -0.233400
H     -2.179800   -0.291500   -0.006700
H      2.172200   -2.412800   -0.005200
