15
gdb_14924
N     -0.004800   -1.147100   -0.065300
C      0.021200    0.006500   -0.024900
C     -0.004000    1.472300    0.039300
C     -0.742300    1.985800    1.290100
C     -0.574600    3.506900    1.346300
O      0.799900    3.858200    1.259800
C      1.377900    3.349900    0.093700
O      1.337200    1.939700    0.031600
H     -0.527200    1.837000   -0.862300
H     -1.799900    1.707700    1.250100
H     -0.293900    1.528500    2.176300
H     -1.135900    3.981500    0.523400
H     -0.945300    3.913600    2.289700
H      0.872000    3.769900   -0.797100
H      2.432400    3.628000    0.100600
