18
gdb_16163
C      0.087000    1.305300    0.324000
O     -0.020300    0.031000   -0.281700
C     -1.286200   -0.535700   -0.176800
C     -1.754400   -1.103200    1.148100
C     -1.452400   -2.029700   -0.014700
C     -2.604500   -2.468600   -0.915500
C     -3.107000   -1.166000   -1.507000
C     -2.372900   -0.121000   -1.120800
H      1.127400    1.621700    0.218700
H     -0.557900    2.050500   -0.164000
H     -0.173400    1.269100    1.391200
H     -1.026900   -1.116800    1.953700
H     -2.782800   -0.942100    1.456200
H     -0.572900   -2.655300    0.073800
H     -2.270000   -3.161200   -1.699300
H     -3.390100   -2.993100   -0.356000
H     -3.983000   -1.116600   -2.144100
H     -2.532500    0.910100   -1.414300
