13
gdb_5136
C      0.012700   -1.254000    0.272900
C      0.017900   -0.063200    0.119000
C      0.025600    1.388100   -0.064200
C      1.396200    1.978800   -0.138700
C      2.095100    2.646400   -1.088000
N      3.350500    2.981500   -0.591800
C      3.345600    2.506700    0.608900
O      2.198600    1.884000    0.967800
H      0.010300   -2.307200    0.408200
H     -0.499900    1.649700   -0.989700
H     -0.537000    1.860300    0.752700
H      1.790500    2.908400   -2.088900
H      4.128000    2.544000    1.350500
