13
gdb_21436
N      0.090600    1.383300    0.138200
C      0.061400    0.123300    0.079600
O      1.108000   -0.749800   -0.193700
N      0.710300   -2.139000    0.014500
C     -0.543200   -2.002600    0.253500
C     -1.819200   -2.581200    0.839600
C     -2.253900   -1.068600    0.983400
N     -1.020400   -0.729800    0.232200
H      1.034200    1.731200   -0.016700
H     -2.424700   -3.163300    0.144200
H     -1.691300   -3.129500    1.772600
H     -3.171000   -0.769700    0.474800
H     -2.246800   -0.695600    2.009800
