15
gdb_12034
C     -0.041700    1.550600    0.070200
C      0.011500    0.022600    0.009400
C      1.108400   -0.630400   -0.938900
C      1.740300   -1.269400    0.300700
O      2.073200   -0.204200    1.204000
C      0.735600   -0.685500    1.197400
C     -1.306200   -0.557100   -0.225000
N     -2.351200   -1.022400   -0.395000
H      0.951600    1.929200    0.320000
H     -0.349000    1.966200   -0.893400
H     -0.752400    1.888500    0.829700
H      0.678100   -1.350900   -1.635800
H      1.740900    0.080600   -1.474600
H      2.311000   -2.185800    0.382300
H      0.301900   -1.024400    2.130600
