19
gdb_18960
C     -0.114400    1.642900    0.058900
C     -0.108400    0.116100    0.015600
N      0.678800   -0.432700    1.120100
C      2.160300   -0.511900    0.912400
C      2.282300   -1.723900    1.885400
C      3.125600   -2.541600    0.888900
C      2.135300   -1.784600   -0.017800
C      0.978700   -1.894200    1.047900
H      0.894000    2.046700   -0.082200
H     -0.750000    2.053100   -0.732000
H     -0.485100    1.996000    1.025300
H     -1.133400   -0.259000    0.131100
H      0.243500   -0.226500   -0.973900
H      2.810600    0.362200    0.847300
H      2.333500   -1.660700    2.971800
H      4.181300   -2.268000    0.798800
H      3.017100   -3.629600    0.932200
H      2.052200   -1.820100   -1.103700
H      0.213500   -2.667800    1.140000
