20
gdb_11791
C      0.180600    1.518000    0.177900
C     -0.077600    0.028100   -0.079100
C      0.614700   -0.501100   -1.310000
C      0.792200   -2.013100   -1.606100
C      2.025200   -1.422200   -2.316600
C      1.426300   -0.645500   -3.507000
C      0.300800    0.087600   -2.711100
O      2.085200   -0.395300   -1.280200
H      1.254700    1.716900    0.228000
H     -0.241700    2.145300   -0.613100
H     -0.269500    1.830700    1.124600
H      0.263000   -0.556300    0.783400
H     -1.154400   -0.160200   -0.181000
H      1.062000   -2.569700   -0.707400
H      0.033500   -2.538500   -2.193200
H      2.958100   -1.968500   -2.455400
H      2.154100    0.043700   -3.940100
H      1.049900   -1.299700   -4.298400
H     -0.708500   -0.158500   -3.053100
H      0.417700    1.172600   -2.725500
