11
gdb_4328
O      0.023900    1.328200    0.007900
C     -0.013400   -0.006300    0.000900
C     -1.201100   -0.674900    0.003800
C     -1.215600   -2.103300   -0.004200
O     -2.124000   -2.877900   -0.001900
O      0.121400   -2.683100   -0.013900
C      1.189700   -1.909500   -0.015600
N      1.216100   -0.623300   -0.009100
H      0.957600    1.582800    0.004100
H     -2.148500   -0.155400    0.012200
H      2.116500   -2.477700   -0.023400
