16
gdb_8327
O      0.079000    0.107400   -0.672500
C      0.020800    1.185500   -0.159800
C     -1.136700    2.093100    0.289400
C     -0.084100    3.128100    0.780900
C     -0.153200    4.609100    0.357600
O     -0.188200    5.051400    1.728300
C     -0.126000    3.696400    2.213700
C      1.074500    2.202400    0.310600
H     -1.781500    2.428200   -0.530100
H     -1.772400    1.655700    1.066400
H      0.728100    4.989900   -0.175400
H     -1.057500    4.901700   -0.192500
H     -1.013400    3.429000    2.802700
H      0.772100    3.517200    2.819800
H      1.735200    1.829000    1.100100
H      1.698700    2.600100   -0.496700
