18
gdb_19176
C     -0.379400    1.543700   -0.069300
C     -0.043300    0.058700   -0.009000
C      1.147400   -0.604400   -0.791400
C      2.123000   -0.096900    0.297800
O      2.493100    1.257800    0.251900
C      0.867700   -0.588000    1.093500
C      0.968500   -1.839600    0.158800
O     -0.078500   -2.750300    0.012000
H      0.494400    2.179800    0.045300
H     -0.856100    1.777300   -1.028600
H     -1.102800    1.791900    0.716500
H     -0.989900   -0.481800   -0.145100
H      1.317300   -0.614900   -1.869200
H      3.015000   -0.724900    0.436400
H      2.972700    1.459500    1.061500
H      0.717900   -0.580300    2.175300
H      1.864900   -2.449700    0.294700
H     -0.906700   -2.274900   -0.107900
