19
gdb_10312
C      0.015200    1.380900   -0.215400
O     -0.018000    0.018300    0.171700
C     -1.293000   -0.576300    0.102500
C     -1.738100   -0.682000   -1.308400
N     -2.068100   -0.749200   -2.414000
C     -1.230200   -1.960400    0.782400
C     -0.772400   -1.805700    2.237600
C     -2.577400   -2.687000    0.690100
H      1.044000    1.719900   -0.080400
H     -0.271800    1.511300   -1.267300
H     -0.650800    1.991300    0.412300
H     -2.036300    0.047400    0.629700
H     -0.475600   -2.538000    0.234800
H     -1.507800   -1.237400    2.820000
H     -0.667100   -2.788400    2.706700
H      0.185800   -1.287100    2.298100
H     -2.896200   -2.830400   -0.345900
H     -2.504600   -3.672100    1.159600
H     -3.363100   -2.129400    1.213600
