17
gdb_4815
C      0.200700    1.380600    0.060400
N      0.016000   -0.054000    0.005700
C     -0.242400   -0.780600   -1.129600
C     -0.229200   -2.116100   -0.800300
C      0.045300   -2.210400    0.594600
C      0.136000   -3.455300    1.427700
O      1.040200   -3.326700    2.519600
C      0.196500   -0.918600    1.056500
H      1.246800    1.665100   -0.104100
H     -0.415000    1.859000   -0.704900
H     -0.112800    1.755700    1.037600
H     -0.403900   -0.283300   -2.073200
H     -0.413100   -2.937800   -1.476500
H     -0.829100   -3.699000    1.889100
H      0.400200   -4.310500    0.784700
H      1.867800   -2.995700    2.154200
H      0.413400   -0.551700    2.046900
