17
gdb_18234
O     -0.098300    0.024600    0.050300
C      0.002300    1.235900    0.032500
N      1.172800    1.915200    0.094700
C      2.473200    1.251300    0.203100
C      3.402600    2.326700    0.816400
C      2.725000    3.657900    0.511700
C      2.279200    3.931400   -0.910100
C      1.313000    3.346800    0.094500
H     -0.870300    1.917200   -0.024100
H      2.371900    0.351100    0.811900
H      2.824800    0.934700   -0.786100
H      3.465000    2.200000    1.902100
H      4.418500    2.254600    0.417700
H      2.940300    4.503100    1.154600
H      2.136500    4.969400   -1.190200
H      2.637600    3.295700   -1.713200
H      0.446300    3.904300    0.428500
