13
gdb_4450
N      0.094700    1.393100    0.181700
C     -0.017300    0.010200    0.009900
C     -1.063900   -0.811800   -0.110500
O     -2.375900   -0.570400   -0.278900
O     -0.628600   -2.139200   -0.165800
C      0.749000   -2.129700   -0.058500
N      1.517900   -3.132900    0.014800
N      1.133400   -0.798700   -0.043800
H      0.552600    1.839600   -0.609100
H     -0.822100    1.809400    0.294000
H     -2.877500   -0.997000    0.428800
H      0.983700   -3.997100   -0.018800
H      2.006100   -0.534300    0.383200
