18
gdb_13561
C     -0.295000    1.383000    0.210700
C      0.099700   -0.050800   -0.195500
C      0.871300   -0.018500   -1.502300
O      0.508000   -0.522300   -2.532800
C      0.962500   -0.678200    0.887200
O      0.315400   -1.003000    2.118700
C      0.870100   -2.076400    1.341800
C     -0.081600   -3.108700    0.796000
H      0.587300    2.026600    0.302200
H     -0.967600    1.829500   -0.526800
H     -0.799900    1.361500    1.179700
H     -0.798700   -0.648800   -0.360600
H      1.836400    0.540900   -1.447900
H      1.925700   -0.177200    1.021600
H      1.778000   -2.495200    1.781600
H     -0.986800   -2.656700    0.386700
H      0.403800   -3.694500    0.008300
H     -0.379500   -3.798800    1.592100
