13
gdb_14416
O     -0.146500    1.396100    0.021700
C      0.043900    0.051600   -0.001200
C      0.071900   -1.023500   -1.024300
N      1.285500   -1.635500   -0.470600
C      0.962300   -0.961700    0.822300
C     -0.392700   -1.559000    1.289500
O     -0.776900   -2.034400    2.319800
C     -1.056000   -1.032000    0.052600
H      0.637900    1.824400   -0.342600
H     -0.171700   -1.012300   -2.079500
H      1.234000   -2.654800   -0.397200
H      1.774100   -0.749600    1.514200
H     -2.102100   -0.924000   -0.196300
