22
gdb_6933
C      0.031600    1.529900   -0.152500
C      0.169900    0.008000   -0.065400
C      0.502500   -0.486300    1.349400
C      0.639500   -1.992300    1.424600
C      1.953300   -2.690300    1.102800
C      1.386100   -2.719000    2.504800
C      2.084800   -2.004900    3.639900
O      0.745500   -3.909200    2.903100
H      0.961900    2.030100    0.139700
H     -0.213000    1.851900   -1.169600
H     -0.760300    1.894900    0.511300
H     -0.761800   -0.465600   -0.401700
H      0.949800   -0.334800   -0.757100
H      1.430000   -0.005500    1.685500
H     -0.282000   -0.151000    2.042200
H     -0.242300   -2.536500    1.094800
H      1.914700   -3.609400    0.528600
H      2.824200   -2.068800    0.914200
H      2.553100   -1.073400    3.312700
H      1.377100   -1.774900    4.443000
H      2.875900   -2.638700    4.060400
H      1.430100   -4.535200    3.165400
