15
gdb_6753
C      0.004900    1.398500    0.021600
O     -0.008400   -0.010500   -0.033400
C      0.639400   -0.590200    1.076700
C      0.601800   -2.042800    0.982100
C      0.584100   -3.246300    0.928100
C      0.526000   -4.695900    0.797700
N      1.140300   -5.364600    1.817800
O     -0.028400   -5.251000   -0.130100
H      1.031500    1.798000    0.024100
H     -0.513500    1.758600   -0.869100
H     -0.514500    1.777800    0.915900
H      1.690500   -0.255100    1.135800
H      0.159000   -0.273900    2.020000
H      1.653500   -4.879800    2.532800
H      1.187600   -6.368900    1.765800
