17
gdb_4456
C      0.163500    1.456100    0.020400
C     -0.055900   -0.012700    0.017400
C     -1.150100   -0.818100    0.051500
C     -2.589000   -0.409300    0.112700
C     -0.660700   -2.177300    0.010500
C      0.695100   -2.085800   -0.039500
N      1.726400   -3.017400   -0.011700
O      1.089500   -0.791500   -0.036200
H      0.762100    1.778200    0.881500
H      0.686800    1.794000   -0.882800
H     -0.795400    1.977300    0.065700
H     -3.150700   -0.789500   -0.748900
H     -3.079200   -0.803300    1.011000
H     -2.701700    0.678200    0.125900
H     -1.248800   -3.081700    0.017800
H      1.431400   -3.929000   -0.333400
H      2.540000   -2.706400   -0.528300
