17
gdb_12869
C     -0.073200    1.537200    0.005800
C      0.090900    0.035300    0.014400
C      1.415000   -0.688700   -0.222600
N      2.632300    0.062700   -0.023500
C      2.617000    0.415900    1.198300
O      1.587700    0.015500    1.987300
C      0.720000   -0.746200    1.136800
C      0.089700   -1.912300    1.837500
H      0.819500    2.052600    0.365900
H     -0.271600    1.894000   -1.009800
H     -0.912300    1.839300    0.641100
H     -0.742800   -0.504000   -0.430000
H      1.463200   -1.506800   -0.932100
H      3.365300    1.018900    1.698500
H     -0.580800   -1.578100    2.636500
H     -0.498900   -2.500800    1.128300
H      0.851200   -2.563100    2.278500
