9
gdb_143
N      0.040300   -1.134000   -0.008500
C      0.011600    0.022200    0.017500
C     -0.006700    1.462600    0.034000
C      0.510900    2.173200    1.243600
N      1.268100    2.208800   -0.006600
H     -0.807200    1.910000   -0.546800
H      0.045800    3.111800    1.528300
H      0.870800    1.562500    2.065900
H      2.049600    1.558600    0.031800
