13
gdb_378
C     -0.527900    1.075900   -0.102300
O      0.630600    0.278600    0.075000
C      1.015800   -0.446200   -1.068200
C      2.376100   -1.082700   -0.787400
C      0.007900   -1.478200   -1.417300
N     -0.787200   -2.273000   -1.684800
H     -0.388900    1.809000   -0.910800
H     -1.411900    0.464500   -0.327400
H     -0.689200    1.606400    0.837700
H      1.093600    0.226800   -1.938700
H      2.305800   -1.752600    0.072300
H      2.720700   -1.651200   -1.654300
H      3.097000   -0.293400   -0.563500
