14
gdb_4672
N      0.011300    1.430600    0.154100
C     -0.001300    0.036800    0.045200
C     -1.084500   -0.798900    0.026200
N     -0.607700   -2.115800   -0.002500
C     -1.390500   -3.257300   -0.029600
O     -0.956900   -4.381300   -0.065400
C      0.776900   -2.093800   -0.008300
C      1.178800   -0.792800    0.023700
H      0.786100    1.860300   -0.333200
H     -0.855300    1.867200   -0.129500
H     -2.143000   -0.597500    0.036000
H     -2.467900   -3.011500   -0.014200
H      1.322800   -3.021200   -0.034100
H      2.200100   -0.441900    0.038700
