14
gdb_20406
C      0.041400    1.398100   -0.109200
C      1.539100    1.819600    0.065800
C      2.084700    0.562000    0.672300
N      3.215200    0.130700    1.211300
N      2.947900   -1.168300    1.475000
C      1.678800   -1.571300    1.123600
C      1.112800   -0.439200    0.593400
O     -0.059300   -0.051800    0.028700
H     -0.582300    1.848900    0.670800
H     -0.370800    1.660400   -1.085400
H      2.010500    2.051700   -0.895900
H      1.630000    2.704800    0.700700
H      3.655300   -1.725500    1.920900
H      1.334300   -2.578800    1.281300
