17
gdb_12478
N     -0.100700    1.286200    0.421100
C     -0.025800    0.112100   -0.050400
C     -1.315900   -0.677900   -0.222400
O     -1.379900   -1.443100   -1.407600
C     -0.906600   -2.770600   -1.270000
C      0.532600   -2.830000   -0.731100
C      1.345100   -1.609500   -1.159900
O      1.179100   -0.465100   -0.308100
H      0.837000    1.678700    0.531300
H     -1.469300   -1.311600    0.665400
H     -2.123000    0.055400   -0.249300
H     -1.583100   -3.358500   -0.630200
H     -0.952700   -3.191100   -2.279200
H      0.551500   -2.887800    0.362700
H      1.019400   -3.740400   -1.098800
H      2.414200   -1.822300   -1.089400
H      1.116700   -1.331000   -2.195000
