20
gdb_17677
C      0.136000    1.144000   -0.547300
C      0.298900   -0.195200    0.131100
N      1.646000   -0.560500    0.611700
C      0.551400   -0.400200    1.589300
C      0.712500    0.766000    2.547000
C     -0.054900   -1.612200    2.248900
C      0.137800   -2.998100    1.766000
N      0.784600   -2.556300    3.016600
H      0.760100    1.909600   -0.082700
H      0.428000    1.073200   -1.600700
H     -0.907700    1.475000   -0.510800
H     -0.272200   -0.997400   -0.336100
H      1.840800   -1.540200    0.419800
H      1.216700    1.607300    2.070100
H     -0.261900    1.104200    2.916900
H      1.310600    0.464400    3.413700
H     -0.993900   -1.392700    2.755600
H     -0.656900   -3.727800    1.893700
H      0.757700   -3.174700    0.889500
H      1.764800   -2.351700    2.827600
