13
gdb_578
N     -0.088800    1.214500   -0.018600
C     -0.189100   -0.023400    0.203000
O     -1.018200   -0.776600   -0.552900
C     -1.021300   -2.155400   -0.268900
C     -1.835700   -2.659900    0.892400
C     -2.306200   -2.866300   -0.532700
H      0.569500    1.630400    0.637100
H      0.337500   -0.598500    0.976100
H     -0.086100   -2.653800   -0.512600
H     -1.463100   -3.510100    1.452600
H     -2.361100   -1.917700    1.482400
H     -3.131400   -2.252800   -0.874600
H     -2.264500   -3.860000   -0.963000
