16
gdb_9950
C     -0.165500    1.381900   -0.063300
C      0.108900   -0.100500    0.026700
C      1.477700   -0.667200   -0.115400
O      2.538300    0.237300   -0.232000
C      0.801000   -0.680800    1.270200
O      1.325800    0.179400    2.228000
C      0.340900   -1.983800    1.790900
O     -0.199900   -2.827700    1.111100
H      0.599900    1.965500    0.450100
H     -0.195800    1.705500   -1.108400
H     -1.130800    1.617300    0.394200
H     -0.667800   -0.758500   -0.354400
H      1.600800   -1.621400   -0.621400
H      3.361900   -0.258400   -0.169400
H      2.120200    0.572200    1.838300
H      0.549300   -2.134800    2.871900
