14
gdb_3568
C      0.094600    1.475000    0.030900
C      1.321100    0.667300   -0.042500
C      1.658600    0.040000    1.321000
O      1.316100    0.831300    2.484600
C      0.026500    0.167500    2.598900
C      0.276900   -0.613100    1.301000
N     -0.062100    0.007800   -0.046400
H     -0.131900    2.018200    0.941800
H     -0.235600    1.961000   -0.881800
H      1.964100    0.634100   -0.916600
H      2.613400   -0.479800    1.416900
H     -0.011900   -0.469100    3.491800
H     -0.813700    0.870600    2.622300
H      0.091200   -1.685100    1.282200
