15
gdb_9580
C     -0.110900    1.564300    0.034800
C     -0.038400    0.055400    0.058700
C      1.260000   -0.662100   -0.242400
C      0.739100   -0.683400    1.170300
C      1.387100    0.081300    2.196900
N      1.908000    0.698600    3.025000
C     -1.274400   -0.667100   -0.363600
O     -2.284100   -0.125300   -0.730300
H      0.812100    2.013100    0.408000
H     -0.283900    1.912800   -0.986900
H     -0.941900    1.918400    0.650100
H      1.225800   -1.597400   -0.790900
H      2.120600   -0.038500   -0.452500
H      0.308500   -1.616700    1.520700
H     -1.194200   -1.779500   -0.321000
