15
gdb_3364
O      0.047000    1.382300    0.078100
C     -0.042100   -0.005300    0.008700
C     -1.357300   -0.735100    0.004600
C     -2.599100    0.089400   -0.340100
C     -2.340300    0.565400   -1.755400
C     -1.197200    0.074500   -2.249100
C     -0.462700   -0.749000   -1.248900
H     -0.434700    1.742400   -0.678500
H      0.761300   -0.457900    0.581400
H     -1.466800   -1.615900    0.627000
H     -3.518000   -0.507000   -0.280000
H     -2.726300    0.931600    0.353600
H     -3.014800    1.233900   -2.279000
H     -0.810600    0.269000   -3.243400
H      0.105000   -1.616800   -1.567000
