17
gdb_3368
C     -0.170500    1.555300   -0.038500
C      0.029000    0.054900    0.040700
C      1.344600   -0.648400   -0.211000
C      2.625300    0.154900   -0.083700
O      2.539800    0.861000    1.152900
C      1.687400    0.142600    2.042900
C      0.733200   -0.656500    1.175100
H      0.692100    2.103000    0.345000
H     -0.338400    1.867000   -1.075500
H     -1.050800    1.857700    0.539800
H     -0.822400   -0.507100   -0.338100
H      1.364700   -1.538400   -0.830000
H      3.492900   -0.524700   -0.093200
H      2.773100    0.904000   -0.870000
H      2.268300   -0.540800    2.683300
H      1.203200    0.883300    2.689400
H      0.293500   -1.552500    1.598700
