19
gdb_7443
C     -0.073600    1.556500   -0.035200
C      0.024100    0.025800   -0.042900
C      0.713900   -0.484600   -1.314300
C      0.778300   -0.501100    1.205400
O      2.094700   -0.016200    1.245300
C      0.085300   -0.105600    2.519500
N     -1.147800   -0.621500    2.742200
O      0.644600    0.644900    3.303900
H      0.927300    1.996000   -0.003300
H     -0.576500    1.915800   -0.938100
H     -0.632500    1.927100    0.830000
H     -0.992700   -0.392200   -0.012000
H      1.747200   -0.128800   -1.352900
H      0.733800   -1.579500   -1.346500
H      0.193500   -0.129800   -2.209500
H      0.797500   -1.602900    1.152100
H      2.133300    0.516300    2.059100
H     -1.571400   -1.282300    2.115000
H     -1.617500   -0.399100    3.604500
