14
gdb_18778
O     -0.047800    1.313800    0.062800
C      0.044800   -0.055700    0.046800
C     -0.145400   -0.933900   -1.201400
C     -1.077000   -1.053700   -0.002600
C     -0.074100   -2.103700    0.566000
C      0.746800   -2.122100   -0.766600
O      1.927000   -1.576700   -0.124700
C      1.005000   -1.000200    0.828600
H      0.678500    1.674300   -0.459400
H     -0.337600   -0.507400   -2.176800
H     -2.147700   -0.938700    0.073700
H     -0.274800   -2.954800    1.210900
H      0.947600   -2.967800   -1.422800
H      1.448100   -0.706700    1.779200
