20
gdb_6903
C      0.092900    1.495100    0.014300
C      0.040100    0.040100    0.028800
C      0.000500   -1.165000    0.043700
C     -0.031400   -2.598900    0.046000
C     -0.529100   -3.367600    1.266800
C     -1.344100   -3.385200    0.003200
C     -2.650400   -2.618600   -0.022100
C     -1.343300   -4.656600   -0.823400
H      1.115800    1.852600   -0.149900
H     -0.533900    1.914700   -0.780900
H     -0.252800    1.917500    0.964700
H      0.792900   -3.066400   -0.487100
H      0.018800   -4.260300    1.550300
H     -0.890600   -2.775800    2.100300
H     -2.581800   -1.690800    0.550500
H     -2.930600   -2.354900   -1.048500
H     -3.460600   -3.224700    0.399600
H     -2.103600   -5.358200   -0.459900
H     -1.564400   -4.443700   -1.875700
H     -0.374800   -5.164900   -0.780400
