15
gdb_3613
C     -0.155800    1.316900    0.119400
C      1.408900    1.362300   -0.058200
C      2.241200    0.012000   -0.024600
C      1.717000   -1.312300    0.563400
C      0.223100   -1.093100    0.344500
C      0.036800   -0.069500   -0.513100
C      1.364500    0.356100   -1.171800
H     -0.594100    1.347100    1.121200
H     -0.602500    2.093400   -0.512800
H      1.976400    2.290400   -0.060200
H      3.313900    0.191100   -0.083500
H      2.191700   -2.167100    0.059800
H      1.894300   -1.439400    1.638500
H     -0.475400   -1.300900    1.150900
H      1.590700    0.458700   -2.224900
