15
gdb_2926
O     -0.008100    1.419800    0.057900
C     -0.013800    0.005100    0.006100
C     -1.421300   -0.487800   -0.015800
C     -2.545900    0.219600    0.005800
C     -3.729300   -0.702200   -0.030500
O     -3.180900   -2.019100   -0.075600
C     -1.760100   -1.955900   -0.068800
H      0.906900    1.714200    0.068900
H      0.515700   -0.367500   -0.889000
H      0.510900   -0.432000    0.874500
H     -2.618000    1.297700    0.043800
H     -4.374100   -0.598700    0.856900
H     -4.368700   -0.535900   -0.912300
H     -1.357800   -2.447200   -0.970600
H     -1.363500   -2.509800    0.798700
