12
gdb_14601
O      0.215800    0.403500   -1.202400
C      0.108800    1.325900   -0.426200
N      1.095900    1.752000    0.415300
C      2.416600    1.144000    0.399800
C      3.474800    2.101900    0.101700
C      4.348400    2.905300   -0.121200
C      5.335200    3.814300   -0.375500
N      6.173500    4.589500   -0.588200
H     -0.815500    1.921700   -0.308100
H      0.933800    2.556600    0.999800
H      2.634500    0.650500    1.356200
H      2.378600    0.363800   -0.369000
