17
gdb_2340
C     -0.324800    1.449900   -0.031100
C     -0.316800   -0.047700   -0.279800
O     -1.356100   -0.638800    0.501400
C     -1.438000   -2.024600    0.325600
C     -2.731000   -2.659500    0.764700
C     -2.432500   -2.487500   -0.710600
O     -3.105300   -1.513600   -1.448900
H      0.476500    1.932100   -0.598800
H     -1.277500    1.890700   -0.339300
H     -0.176600    1.663800    1.031000
H     -0.472900   -0.274400   -1.344200
H      0.651000   -0.484500    0.011900
H     -0.498600   -2.556800    0.474900
H     -2.694200   -3.649100    1.206800
H     -3.474300   -1.993200    1.190300
H     -2.222200   -3.364700   -1.313300
H     -2.960900   -0.680200   -0.980700
