16
gdb_8822
C     -0.102400    1.486600    0.870200
N      0.181100    0.088000    1.136600
C      0.876800   -0.686400    0.272400
O      1.327100   -0.305300   -0.791600
C      1.086700   -2.171000    0.683900
C      2.571500   -2.558400    0.527200
C      0.578000   -2.486100    2.017400
N      0.165800   -2.691300    3.078600
H      0.323000    1.730100   -0.103500
H     -1.181600    1.670500    0.848700
H      0.349100    2.131000    1.631800
H     -0.138200   -0.317200    2.002800
H      0.498600   -2.750100   -0.039000
H      2.896700   -2.258900   -0.469600
H      3.187100   -2.043900    1.269400
H      2.703900   -3.635200    0.651000
