13
gdb_10575
C     -0.072200    1.530500   -0.079500
C     -0.035200    0.034700    0.057400
O      1.211100   -0.623000   -0.139200
C      0.662100   -0.652400    1.188900
C      1.356900    0.085900    2.212000
C      1.923600    0.688100    3.082600
C      0.158800   -1.952500    1.606200
N     -0.258500   -2.976900    1.939400
H      0.770900    1.994300    0.435300
H     -0.032600    1.803200   -1.138700
H     -1.004900    1.923000    0.337200
H     -0.884600   -0.507900   -0.359900
H      2.431600    1.217800    3.851300
