20
gdb_5881
C     -0.004900    1.530400   -0.007100
C      0.002600   -0.015400    0.000300
C      0.750000   -0.524900    1.253400
C     -1.450400   -0.541500    0.011900
C      0.686800   -0.499200   -1.205400
C      1.247400   -0.902300   -2.192200
C      1.929000   -1.367800   -3.393200
O      1.969000   -2.791400   -3.402600
H      1.014300    1.927100   -0.016700
H     -0.527900    1.915300   -0.887200
H     -0.512700    1.907600    0.887300
H      0.249900   -0.169200    2.160900
H      0.771100   -1.618000    1.277000
H      1.782800   -0.165500    1.265500
H     -1.999200   -0.192800   -0.867400
H     -1.468900   -1.634900    0.011700
H     -1.972300   -0.187400    0.907600
H      1.401900   -0.980900   -4.281000
H      2.946200   -0.943200   -3.419100
H      2.429300   -3.058200   -4.204900
