9
gdb_21977
O     -0.067300   -0.004000    0.005000
N     -0.015000    1.218100    0.007800
O      0.982600    1.915600    0.002700
C     -1.299900    1.888000    0.018900
C     -2.554800    1.371400    0.026300
N     -3.395200    2.455900    0.035600
N     -2.742900    3.531800    0.033400
O     -1.341300    3.206100    0.023400
H     -2.894700    0.351500    0.025700
