20
gdb_10706
C      0.591200    0.034900    1.238500
C     -0.075500   -0.058000   -0.141300
C     -1.451300   -0.709100   -0.118600
C     -1.836300   -1.627200   -1.284900
C     -1.522600   -2.215100    0.050900
C     -2.636000    0.052400    0.420800
C     -2.539800    1.566500    0.511900
O     -3.664900   -0.518500    0.720400
H      1.582500    0.492600    1.163700
H      0.001900    0.634300    1.940000
H      0.710600   -0.959200    1.680800
H     -0.134800    0.938400   -0.594900
H      0.570700   -0.646100   -0.803500
H     -2.874600   -1.611300   -1.594700
H     -1.113300   -1.725500   -2.087700
H     -0.579500   -2.735900    0.176300
H     -2.351700   -2.590500    0.638100
H     -2.327200    1.994900   -0.474200
H     -3.487500    1.958200    0.882300
H     -1.728600    1.879300    1.176300
