19
gdb_19358
C      0.053500    1.552900    0.038700
C     -0.039800    0.021900    0.072200
C      0.758900   -0.614300    1.179100
C      0.272000   -1.740500    2.003900
N      0.402400   -0.404000    2.631500
C      1.864500   -0.089200    2.886800
C      2.894000   -1.107000    2.486300
C      2.242700   -0.248900    1.434100
H      1.074000    1.895100   -0.159700
H     -0.589500    1.962900   -0.745700
H     -0.263200    1.974200    0.997200
H     -1.088200   -0.274800    0.190800
H      0.294800   -0.396500   -0.887500
H     -0.770700   -2.019600    1.878000
H      0.905700   -2.564100    2.310500
H      2.069100    0.708700    3.589100
H      3.904900   -0.792100    2.729900
H      2.758200   -2.180300    2.554200
H      2.804800    0.414800    0.791100
