15
gdb_18654
O      0.025800    0.071000    0.539500
C     -0.027700    1.209000    0.113500
C     -1.303500    1.873800   -0.220700
C     -1.333900    2.993700   -0.951600
C     -0.098200    3.663400   -1.484500
N      1.178000    3.265200   -0.888700
C      1.304400    3.354200    0.551600
C      1.215600    2.011400   -0.113900
H     -2.206700    1.374800    0.114700
H     -2.285000    3.449200   -1.221300
H     -0.038000    3.477100   -2.566700
H     -0.188800    4.752200   -1.378300
H      2.268800    3.696700    0.915600
H      0.445800    3.673500    1.138700
H      2.116700    1.414900   -0.222700
