9
gdb_23826
F      0.056000    0.093900    0.002500
C     -0.084300    1.389400    0.011500
N     -1.232600    1.912500    0.029900
C     -1.275100    3.300800    0.038000
N     -2.350400    3.948400    0.056500
O     -0.032500    3.970000    0.025500
N      1.181400    3.273900    0.005100
N      1.167300    2.035700   -0.001800
H     -2.178700    4.953400    0.060000
