15
gdb_4075
O     -0.239600    1.303500    0.449800
N     -0.048100   -0.085800    0.330700
C     -1.082900   -0.644100   -0.135700
C     -2.473200   -0.189700   -0.550200
C     -2.822700   -1.684800   -0.675200
C     -4.066200   -2.380900   -0.351300
O     -3.617600   -2.224300   -1.708100
C     -1.364000   -2.111700   -0.406800
H      0.602900    1.593900    0.816200
H     -3.024300    0.398200    0.188800
H     -2.494600    0.341600   -1.507800
H     -4.033000   -3.398500    0.035900
H     -4.954500   -1.809400   -0.085400
H     -0.867700   -2.499400   -1.302900
H     -1.192000   -2.804400    0.421300
