20
gdb_13022
C     -0.021200    1.550300   -0.035000
C      0.035300    0.023900    0.034200
C      0.799300   -0.614900   -1.149400
O      1.362000   -1.837200   -0.679100
C      1.544500   -1.712200    0.707800
C      2.266900   -0.496100    1.235900
C      0.743400   -0.567900    1.256000
C      0.001500   -0.617800    2.569000
H      0.984900    1.982700   -0.010100
H     -0.509000    1.887700   -0.956100
H     -0.585100    1.965300    0.806200
H     -0.991200   -0.367200    0.044200
H      0.158300   -0.845800   -2.005100
H      1.593000    0.062700   -1.500100
H      1.639800   -2.676400    1.194300
H      2.773100   -0.596400    2.190700
H      2.771400    0.162100    0.536500
H     -0.169500    0.387100    2.973600
H     -0.976100   -1.100800    2.453400
H      0.564100   -1.178900    3.322100
