16
gdb_1872
C     -0.176900    1.503600   -0.006000
C      0.092100    0.002700    0.041100
C      0.953500   -0.520800   -1.119600
O      1.555100   -1.733900   -0.642900
C      1.562800   -1.753900    0.726900
N      2.043300   -2.687800    1.426400
C      0.906800   -0.493500    1.246300
H      0.759500    2.072100    0.024700
H     -0.710500    1.784300   -0.920400
H     -0.788300    1.821100    0.844200
H     -0.862700   -0.537400    0.022500
H      0.385100   -0.757900   -2.022400
H      1.745300    0.194800   -1.382400
H      2.439100   -3.414300    0.826700
H      1.687600    0.231800    1.510100
H      0.323300   -0.692500    2.145500
