15
gdb_19392
O      0.011500    0.055200   -0.059900
C      0.005500    1.244600    0.012800
N     -1.128900    2.170900   -0.026800
C     -1.015000    3.002000    1.213100
C     -0.113800    3.316800    0.095200
C      1.039400    2.339200    0.051700
C      2.392800    2.341600    0.713900
C      2.293200    2.369200   -0.783600
H     -1.892200    3.621800    1.369600
H     -0.615000    2.540400    2.112500
H     -0.221500    4.191900   -0.534000
H      2.693900    3.248700    1.226700
H      2.704300    1.418700    1.191200
H      2.533400    1.467900   -1.336800
H      2.523400    3.296900   -1.296500
