22
gdb_13625
C      1.314000    1.156900   -0.723100
C      0.835400   -0.297800   -0.735400
C     -0.496600   -0.540400    0.003100
C     -1.690500    0.161900   -0.661100
C     -0.763000   -2.030000    0.082100
O      0.078100   -2.814500    0.936100
C     -1.320200   -2.744100    1.244700
C     -1.712500   -2.107100    2.553600
H      2.289500    1.249300   -1.210700
H      0.622300    1.823300   -1.247800
H      1.420600    1.528700    0.302300
H      0.736900   -0.645100   -1.773400
H      1.596900   -0.933300   -0.269500
H     -0.384400   -0.154800    1.023300
H     -2.617800   -0.029000   -0.111400
H     -1.546700    1.244700   -0.703000
H     -1.833100   -0.194400   -1.688500
H     -0.932500   -2.491400   -0.896100
H     -1.853800   -3.673100    1.028800
H     -1.170900   -1.177000    2.735100
H     -2.787500   -1.896100    2.568200
H     -1.496200   -2.789900    3.382100
