14
gdb_1437
C     -0.316400    1.303900   -0.416800
N     -0.862600   -0.025000   -0.229800
C     -0.628100   -0.757500    0.885500
O      0.048900   -0.389100    1.827100
C     -1.287100   -2.154600    0.921200
C     -2.084700   -2.537400   -0.233700
C     -2.738500   -2.829000   -1.200600
H      0.334000    1.345800   -1.297500
H     -1.112400    2.047500   -0.534300
H      0.269100    1.545000    0.471200
H     -1.440700   -0.433600   -0.947600
H     -0.473500   -2.870900    1.081500
H     -1.893300   -2.181900    1.833600
H     -3.320400   -3.105600   -2.045000
