13
gdb_4517
N      0.088200    1.403500   -0.166100
C     -0.000700    0.007900   -0.081700
C     -1.116100   -0.774300   -0.021500
O     -2.443600   -0.489300    0.099600
N     -0.644200   -2.102100   -0.038800
C      0.700900   -2.012000   -0.097400
O      1.454500   -3.126800   -0.108000
N      1.139000   -0.780400   -0.135100
H      0.995900    1.717400    0.154900
H     -0.639500    1.862200    0.368500
H     -2.814400   -0.309900   -0.773600
H     -1.194500   -2.936200    0.070000
H      2.371200   -2.826800   -0.149200
