16
gdb_1670
C      0.076400    1.574700    0.053300
C     -0.015900    0.053100   -0.004500
C     -1.411000   -0.494600   -0.072700
N     -2.177100   -0.212100    1.255800
H     -2.162800    0.793800    1.441400
H     -3.147900   -0.536200    1.245700
H     -1.684500   -0.670000    2.025300
C      0.760400   -0.572400   -1.299300
O      1.686200    0.127600   -1.708900
O      0.292100   -1.670600   -1.652400
H      1.111200    1.848500   -0.162700
H     -0.542800    2.037300   -0.725300
H     -0.206800    2.016400    1.023300
H      0.498700   -0.394100    0.860900
H     -2.020700   -0.022900   -0.847100
H     -1.391700   -1.573700   -0.220300
