16
gdb_19297
C     -0.037700    1.347600    0.212800
O     -0.061300    0.025400   -0.298300
C     -1.292900   -0.604800   -0.133800
C     -1.349400   -2.031500   -0.665900
O     -0.449300   -2.824700    0.121300
C     -1.757300   -2.567100    0.649200
C     -1.639700   -1.184700    1.314100
O     -0.647700   -1.052100    2.287900
H      0.958100    1.748800    0.011400
H     -0.784100    1.982800   -0.289000
H     -0.222400    1.363300    1.293400
H     -2.123400    0.006700   -0.520300
H     -1.568700   -2.384000   -1.666400
H     -2.373700   -3.423100    0.897400
H     -2.573300   -0.794700    1.724600
H      0.151900   -1.426700    1.893900
