22
gdb_13405
C      0.035800    1.587100    0.130000
C      0.011800    0.062800   -0.011400
C     -1.409600   -0.514900   -0.013600
C     -1.465000   -2.040600   -0.107300
C     -2.881500   -2.640600   -0.081400
C     -2.656300   -4.025100   -0.693700
O     -1.572400   -3.887200   -1.612700
C     -0.926300   -2.631200   -1.421600
H      1.060000    1.972800    0.132600
H     -0.499400    2.069800   -0.695400
H     -0.442800    1.905000    1.063100
H      0.528100   -0.224600   -0.936200
H      0.583800   -0.391100    0.808800
H     -1.926800   -0.193300    0.900500
H     -1.977500   -0.084300   -0.850900
H     -0.891400   -2.469500    0.726200
H     -3.315500   -2.683500    0.921000
H     -3.550200   -2.044200   -0.714000
H     -2.391300   -4.761100    0.080900
H     -3.530700   -4.406800   -1.232800
H     -1.157300   -1.961200   -2.266400
H      0.157400   -2.792500   -1.409900
