20
gdb_12830
C     -0.104800    1.573000   -0.142400
C     -0.044500    0.046100   -0.036100
C      1.153800   -0.559200   -0.864200
C      2.002200   -0.617300    0.462800
C      0.674000   -0.505300    1.174300
C     -0.128200   -1.093600    2.054100
C     -1.578300   -0.917100    1.604400
C     -1.440300   -0.611600    0.076000
H      0.883900    2.028600   -0.022700
H     -0.493900    1.876400   -1.121500
H     -0.760500    1.996900    0.625800
H      0.931100   -1.560600   -1.240700
H      1.553800    0.056000   -1.675300
H      2.604500   -1.508600    0.653000
H      2.641500    0.265300    0.567900
H      0.158100   -1.694300    2.910100
H     -2.173700   -1.818000    1.789000
H     -2.086500   -0.101100    2.137600
H     -2.253300    0.013500   -0.307300
H     -1.459800   -1.556200   -0.479000
