15
gdb_12058
O      0.194700    1.510500    0.398500
C      0.114700    0.148500    0.096600
C      0.239700   -0.895000    1.276200
C     -1.208000   -1.303100    1.022000
N     -2.017800   -0.058200    1.125500
C     -1.324600   -0.391600   -0.141200
C      1.040300   -0.117100   -1.072700
O      1.491500   -1.197100   -1.354600
H     -0.558200    1.687100    0.981300
H      0.952700   -1.678400    1.013300
H      0.464500   -0.466100    2.254900
H     -1.666500   -2.270600    1.178900
H     -2.999400   -0.306200    1.011200
H     -1.864400   -0.480800   -1.075800
H      1.253800    0.793400   -1.673200
