14
gdb_9975
O     -0.037200   -0.038500    0.074400
C      0.014500    1.157200    0.015100
C      1.320600    1.966500   -0.001900
C      1.388100    2.848200   -1.285800
C      1.397500    2.056200   -2.507600
C      1.400300    1.376100   -3.498000
C      1.364100    2.794300    1.196900
C      1.348900    3.486400    2.179800
H     -0.899900    1.790500   -0.023200
H      2.144900    1.246700   -0.008500
H      0.534600    3.537200   -1.284700
H      2.285800    3.472500   -1.224900
H      1.401900    0.781700   -4.378100
H      1.357300    4.087200    3.055800
