11
gdb_20306
C      0.014800   -1.181100   -0.003700
C      0.025000    0.021700    0.002500
C     -0.011900    1.444300    0.010600
C     -1.233300    2.141900    0.030600
N     -1.261900    3.463200    0.038100
C     -0.058200    4.047600    0.025100
N      1.126300    3.435900    0.006000
N      1.155500    2.111100   -0.001400
H      0.022800   -2.243600   -0.009400
H     -2.179500    1.607000    0.040400
H     -0.028200    5.132900    0.030500
