14
gdb_21115
C      0.133000    1.412500   -0.090900
N      0.150100   -0.030000   -0.021300
N      0.196500   -0.815300   -1.128800
N      0.200700   -2.032700   -0.756900
N      0.157000   -2.065400    0.600500
C      0.149100   -3.300700    1.348800
C      0.122600   -0.789000    1.136900
O      0.080100   -0.434600    2.297500
H      1.036300    1.785600   -0.579900
H     -0.746300    1.761700   -0.638000
H      0.094600    1.773700    0.938200
H      1.055600   -3.877800    1.150000
H      0.111100   -3.025400    2.404200
H     -0.727000   -3.901400    1.092000
