10
gdb_3912
O     -0.006300   -0.034600   -0.000800
C      0.007200    1.170700    0.008400
C      1.222500    1.997500    0.002200
C      1.379500    3.354800    0.011100
C      2.785700    3.521000   -0.002300
N      3.411800    2.366000   -0.017500
O      2.428700    1.399400   -0.014900
H     -0.923600    1.776100    0.022800
H      0.610500    4.109400    0.024900
H      3.365000    4.432800   -0.001300
