19
gdb_7951
C     -0.704200    1.313600    0.017000
C      0.140400    0.044100   -0.052200
C      1.304500    0.072800   -1.054200
C      2.250200   -0.972700   -0.508500
N      3.171900   -1.550400   -1.149700
O      1.950300   -1.211600    0.804800
C      0.867800   -0.363600    1.253600
C      1.435200    0.777000    2.092700
H     -0.094000    2.192800    0.245900
H     -1.201300    1.495600   -0.940800
H     -1.483400    1.234500    0.782700
H     -0.512100   -0.795300   -0.322200
H      1.022100   -0.150700   -2.083500
H      1.804200    1.049500   -1.055800
H      3.668600   -2.205900   -0.543200
H      0.228900   -0.992300    1.882100
H      2.056900    1.449200    1.492800
H      0.631400    1.364000    2.546700
H      2.055900    0.368400    2.894400
