20
gdb_16171
C     -0.284300    1.494900   -0.043300
C      0.169200    0.031400    0.050200
C      0.808800   -0.481900   -1.219900
C     -0.028200   -1.010500   -2.361300
C      0.874400   -1.946500   -1.594600
C      2.252900   -2.165100   -2.186900
O      2.716800   -0.868500   -2.555500
C      2.162200    0.075500   -1.645500
H      0.561500    2.165600   -0.227800
H     -0.999700    1.631600   -0.860800
H     -0.765600    1.818000    0.884900
H      0.876900   -0.078900    0.883400
H     -0.693100   -0.600300    0.295700
H     -1.095800   -1.100800   -2.190000
H      0.249700   -0.749900   -3.378200
H      0.445800   -2.713100   -0.958700
H      2.918300   -2.631200   -1.441100
H      2.267000   -2.781400   -3.092400
H      2.114800    1.035900   -2.169700
H      2.804400    0.199500   -0.755800
