13
gdb_5656
N     -0.026100    1.379100    0.010100
C      1.302400    1.749000   -0.001000
N      2.137200    0.725600   -0.014600
C      1.297200   -0.347800   -0.012000
C     -0.046200   -0.002500    0.003100
C     -0.825500   -1.189200    0.004500
C      0.097600   -2.219900   -0.010000
N      1.387000   -1.715700   -0.020000
H     -0.809900    2.007900    0.021100
H      1.595800    2.788000    0.001600
H     -1.897400   -1.306600    0.014500
H     -0.068100   -3.285300   -0.013900
H      2.230100   -2.261100   -0.031200
