18
gdb_6597
C     -0.026700    1.468800    0.001800
C      0.003600   -0.035700    0.001900
C      0.629800   -0.969200   -1.083100
C      0.047800   -1.922600    0.012500
C      0.652500   -0.971400    1.074500
C     -1.220700   -1.006200    0.004300
C      0.065700   -3.410000   -0.005300
O      0.569600   -4.099300    0.846800
H      0.988200    1.881000   -0.005400
H     -0.552800    1.853900   -0.878500
H     -0.537000    1.850300    0.892900
H      0.139300   -0.984500   -2.060500
H      1.719200   -0.957300   -1.177100
H      1.742800   -0.954600    1.146800
H      0.185000   -0.985800    2.062200
H     -1.832600   -1.028700    0.910200
H     -1.835200   -1.024300   -0.900200
H     -0.437000   -3.866100   -0.891000
