11
gdb_2567
O     -0.171100    0.325200    0.729000
C      0.116900    1.078300   -0.166600
C      1.342000    1.950800   -0.099000
C      1.525100    2.697300    1.207300
N      2.371000    1.569500    0.889300
C      1.788400    2.528800   -1.342500
N      2.092700    2.989500   -2.357800
H     -0.492900    1.175100   -1.084500
H      2.003100    3.670800    1.166400
H      0.726900    2.577000    1.934500
H      2.014400    0.734800    1.359200
