13
gdb_3088
N      0.201400    1.399900    0.046000
C      0.050600   -0.013400    0.040300
C     -0.456600   -0.686800    1.270100
O     -0.814300    0.158700    2.311900
C     -1.337500   -0.731100    0.014900
C     -2.522900    0.063700   -0.006500
N     -3.477200    0.720100   -0.012400
H     -0.143200    1.824400   -0.807800
H     -0.295200    1.804300    0.832500
H      0.808800   -0.547800   -0.525700
H     -0.009500   -1.633000    1.570800
H     -1.683000   -0.094800    2.643300
H     -1.402900   -1.676900   -0.512500
