20
gdb_14352
O     -0.050100    1.397700    0.549600
C      0.030400    0.054300    0.068700
C      0.743400   -0.884800    1.063400
C     -0.319400   -1.273300    2.104900
C     -0.673200   -0.217400    3.193900
C     -2.047200    0.039200    2.511400
C     -1.710600   -1.020000    1.419300
C     -1.402400   -0.497000    0.006000
H      0.847000    1.709700    0.704200
H      0.514800    0.043500   -0.918700
H      1.085800   -1.776800    0.524000
H      1.632600   -0.417800    1.504600
H     -0.148900   -2.277100    2.500300
H     -0.740200   -0.628700    4.204600
H     -0.008900    0.649000    3.218200
H     -2.912500   -0.216200    3.128600
H     -2.178100    1.051900    2.126900
H     -2.399000   -1.867700    1.396600
H     -2.102500    0.270000   -0.338100
H     -1.431700   -1.322100   -0.715000
