16
gdb_7737
C     -0.033700    1.521400    0.049800
C     -0.035000    0.024500   -0.013600
C     -0.165600   -0.666200   -1.154100
C     -0.026100   -2.135800   -1.224800
O      0.111900   -2.740600   -2.256900
O      0.004300   -2.815300   -0.043100
C     -0.449400   -2.135600    1.132800
C      0.154400   -0.744100    1.270200
H      0.896500    1.887400    0.503200
H     -0.134900    1.971200   -0.940500
H     -0.851300    1.885300    0.684600
H     -0.283500   -0.179500   -2.115700
H     -1.544800   -2.062600    1.100000
H     -0.174700   -2.782700    1.968500
H      1.225300   -0.805600    1.509800
H     -0.321700   -0.224000    2.109700
