14
gdb_20350
C     -0.048400    1.530300    0.010700
C      1.443700    1.843700   -0.001800
C      2.148000    0.705200   -0.014800
N      1.257100   -0.379000   -0.012200
N      1.425500   -1.709800   -0.021200
C      0.169500   -2.167300   -0.011900
C     -0.797100   -1.127800    0.003200
C     -0.044400    0.027300    0.002400
H     -0.544600    1.946000    0.896600
H     -0.561500    1.955700   -0.860800
H      1.852800    2.842400   -0.000200
H      3.211400    0.523300   -0.025900
H     -0.006000   -3.233300   -0.016200
H     -1.870000   -1.226800    0.013000
