16
gdb_17009
C     -0.042800    1.579900   -0.169000
C      1.529100    1.609000   -0.183800
C      1.508800    0.108700    0.176700
C      1.981800   -0.755000    1.313700
O      0.818100   -1.496500    1.707600
C     -0.379500   -0.798700    1.336000
C      0.039700    0.081500    0.190600
O      0.777400   -0.590500   -0.831300
H     -0.465300    2.188600    0.633200
H     -0.557500    1.804000   -1.105200
H      2.017400    1.851600   -1.129400
H      1.943800    2.233200    0.610500
H      2.752800   -1.488000    1.058500
H      2.357200   -0.117600    2.130300
H     -1.127500   -1.559900    1.095000
H     -0.762700   -0.175300    2.159700
