20
gdb_10608
C     -0.736500    1.383300    0.634600
C     -0.041200    0.133900    0.083600
C      0.909200   -0.492000    1.085900
C      0.362800   -1.380800    2.175800
C      1.194900   -1.970000    1.053400
O      0.588400   -2.737000    0.053800
O      1.966100    0.322300    1.524700
C      2.958800    0.575400    0.547800
H     -0.002500    2.128700    0.953900
H     -1.382100    1.839700   -0.121700
H     -1.355300    1.137700    1.504000
H     -0.772200   -0.623100   -0.212300
H      0.509700    0.386700   -0.831100
H      0.815800   -1.305400    3.157600
H     -0.703900   -1.579600    2.162800
H      2.213300   -2.262000    1.310100
H      0.296500   -3.564400    0.450600
H      3.350800   -0.356500    0.116500
H      2.588800    1.207100   -0.271400
H      3.770800    1.103400    1.053700
