19
gdb_5249
C      0.020600    1.591500   -0.035000
C      0.093900    0.062900   -0.052400
C      0.629700   -0.528700    1.265000
C      0.717900   -2.027700    1.261000
C     -0.096300   -2.899100    1.950900
N      0.297200   -4.181900    1.658100
C      1.357300   -4.151400    0.789200
C      1.640300   -2.832800    0.523900
H      1.009000    2.034300    0.133000
H     -0.363300    1.985000   -0.981600
H     -0.638400    1.948000    0.765000
H     -0.899400   -0.358000   -0.251100
H      0.732900   -0.268800   -0.880100
H      1.619300   -0.095800    1.466700
H     -0.016200   -0.203400    2.090500
H     -0.916900   -2.708100    2.624700
H     -0.119300   -5.014600    2.034400
H      1.817600   -5.062100    0.441000
H      2.426100   -2.474800   -0.124800
