17
gdb_8369
C      0.165200    1.585900   -0.288700
C      0.040900    0.096900   -0.056400
C      1.271900   -0.809700   -0.076000
C      0.546600   -0.533100    1.193900
C      1.004200    0.055900    2.524000
C      0.183400   -1.078200    3.107600
N     -0.084600   -1.474700    4.265600
O     -0.203000   -1.572900    1.874700
H      1.078800    1.983100    0.166200
H      0.203800    1.814800   -1.359000
H     -0.684000    2.129000    0.140000
H     -0.861200   -0.362000   -0.453400
H      1.164700   -1.798700   -0.508000
H      2.247100   -0.352800   -0.217100
H      2.073700   -0.000600    2.735200
H      0.633700    1.055000    2.761800
H     -0.688100   -2.298500    4.244500
