22
gdb_11131
C      0.186900    1.166600    0.630400
C      0.145100   -0.236900    0.019200
C      0.450600   -0.252600   -1.479800
C      1.952400   -0.047000   -1.851100
C      2.084900   -1.567900   -2.056700
C      0.532400   -1.677400   -2.107000
O      2.823100   -1.924200   -3.195700
C      2.922000   -3.317400   -3.380800
H      1.171000    1.629900    0.501800
H     -0.550700    1.823700    0.156000
H     -0.030100    1.141500    1.702900
H      0.853700   -0.889500    0.547400
H     -0.848100   -0.676500    0.181100
H     -0.237800    0.428300   -1.990200
H      2.076700    0.468600   -2.806700
H      2.604400    0.420100   -1.108300
H      2.494000   -2.076400   -1.169300
H      0.054900   -2.492700   -1.556000
H      0.185600   -1.691900   -3.144200
H      3.410900   -3.808100   -2.523800
H      1.937000   -3.786300   -3.526800
H      3.526500   -3.486600   -4.275300
