13
gdb_16784
N     -0.065000    1.264300   -0.069500
C     -0.054400    0.012800    0.039200
O      1.098600   -0.749500    0.212200
C      0.838100   -2.104200    0.010300
O      1.717800   -2.899900   -0.092900
C     -0.640900   -2.293600   -0.050100
C     -1.374800   -1.803500    1.179700
C     -1.227600   -0.897500   -0.015900
H      0.880000    1.647000   -0.013800
H     -1.029200   -3.114900   -0.635400
H     -2.357800   -2.228100    1.344700
H     -0.811600   -1.589200    2.080800
H     -2.093500   -0.590500   -0.584700
