22
gdb_6979
C      0.284400    1.500900   -0.031100
C      0.015100   -0.015100   -0.006700
C     -1.494200   -0.267500    0.066600
C      0.684600   -0.714600   -1.210600
C      2.181100   -0.876100   -0.830900
C      2.233600   -0.772900    0.718200
C      0.760600   -0.689200    1.168400
O      0.545700    0.029800    2.372200
H      1.349200    1.731600   -0.133900
H     -0.236800    1.961300   -0.877400
H     -0.068300    1.972000    0.889400
H     -2.013800    0.183300   -0.786000
H     -1.716400   -1.340700    0.064600
H     -1.912900    0.162000    0.982300
H      0.226900   -1.700500   -1.356500
H      0.542000   -0.159600   -2.142900
H      2.581000   -1.826400   -1.194200
H      2.789400   -0.090800   -1.288200
H      2.755600   -1.616800    1.180100
H      2.748300    0.137500    1.040800
H      0.358100   -1.711500    1.270000
H      0.989500   -0.438200    3.085600
