11
gdb_501
N     -0.064600    1.238400   -0.022600
C     -0.116800   -0.017100    0.053900
O     -0.842100   -0.716300   -0.849900
C     -0.974600   -2.110200   -0.643400
C     -2.294200   -2.450700    0.044000
O     -2.594900   -3.568300    0.364500
H      0.535800    1.610000    0.710200
H      0.389500   -0.655400    0.792000
H     -0.958200   -2.592900   -1.626400
H     -0.145100   -2.525500   -0.056100
H     -2.956400   -1.572700    0.213000
