16
gdb_15800
O      0.197500    1.668200   -0.046000
C      0.102000    0.255200    0.070500
C      0.628300   -0.456900   -1.183600
C     -0.087000    0.019000   -2.429500
O      0.460600    0.445100   -3.412100
C      0.803800   -0.239500    1.320300
C      0.082600   -0.451700    2.577600
O      0.457800   -1.556600    1.746300
H      1.093700    1.892200   -0.321600
H     -0.969000    0.044900    0.177500
H      1.705100   -0.294500   -1.311300
H      0.457100   -1.535200   -1.065000
H     -1.197800   -0.056200   -2.375600
H      1.872600   -0.014400    1.366400
H      0.613400   -0.381600    3.525200
H     -0.985000   -0.242600    2.622900
