13
gdb_20422
C      0.210800    1.592200    0.072100
C      1.248800    0.575500   -0.221600
N     -0.136800    0.158800    0.064700
C     -0.378800   -0.445400    1.301400
C     -1.264700   -1.433700    1.597200
O     -1.177100   -1.719200    2.894000
N     -0.174000   -0.852700    3.429900
N      0.259000   -0.139000    2.490100
H      0.258200    2.087000    1.037700
H     -0.238300    2.167700   -0.731400
H      1.570000    0.396500   -1.243000
H      1.992900    0.387900    0.546900
H     -1.973700   -1.984500    1.003200
