15
gdb_135
C     -0.033100    1.520100   -0.013200
C      0.019300   -0.009000    0.029000
C      0.750600   -0.533100    1.257100
O      0.754000   -1.943600    1.218500
C      1.410900   -2.520300    2.319200
H      0.972700    1.954100   -0.034100
H     -0.563600    1.870800   -0.903100
H     -0.550400    1.926700    0.862900
H     -0.994700   -0.425100    0.024800
H      0.519600   -0.397800   -0.865300
H      1.785800   -0.147400    1.280900
H      0.257600   -0.175600    2.179000
H      2.469500   -2.217600    2.371100
H      0.932600   -2.245800    3.273600
H      1.361200   -3.605700    2.200600
