17
gdb_14982
O      0.063700    1.410100    0.067500
C      0.058300   -0.000500    0.021200
C     -1.353200   -0.564000   -0.076600
C     -1.430600   -2.084900   -0.118100
C     -2.898900   -2.514900   -0.019000
N     -3.630500   -1.824000    1.039800
C     -3.156800   -0.740200    1.480800
O     -2.049000   -0.059500    1.088000
H     -0.517900    1.661100    0.794200
H      0.626600   -0.293600   -0.867700
H      0.555700   -0.440300    0.900900
H     -1.848300   -0.131900   -0.956800
H     -0.969100   -2.457400   -1.038600
H     -0.864500   -2.497500    0.725600
H     -3.416100   -2.336300   -0.971100
H     -2.971800   -3.591500    0.168600
H     -3.642500   -0.208600    2.297400
