13
gdb_16274
O     -0.227800    0.009500    0.157000
C     -0.008400    1.134800   -0.206700
C      1.276500    1.843800   -0.001700
C      1.321400    3.311100    0.345300
N      1.780300    2.941900   -0.971000
C      3.191300    2.441800   -0.781600
C      2.678700    1.293900    0.115000
O      3.155000    0.291400    0.549100
H     -0.766000    1.747700   -0.746000
H      0.364100    3.825500    0.358900
H      2.031100    3.641700    1.101500
H      3.599300    2.064100   -1.722200
H      3.872200    3.179400   -0.348400
