20
gdb_6907
C      0.048700    1.535700   -0.143500
C      0.001300    0.025900    0.005600
C     -1.213200   -0.607100   -0.649800
C      1.300900   -0.750100   -0.031200
C      0.524300   -0.645000    1.259900
C      1.078700    0.123800    2.453400
C      1.936900   -0.702300    3.298500
C      2.633000   -1.400600    3.986000
H      0.953400    1.973600    0.285900
H      0.026300    1.813900   -1.203700
H     -0.815000    2.010700    0.337300
H     -1.234600   -0.394200   -1.725300
H     -1.214800   -1.694500   -0.525800
H     -2.143900   -0.220100   -0.217600
H      1.327700   -1.704800   -0.546200
H      2.224700   -0.183800   -0.104000
H     -0.012400   -1.542100    1.557300
H      1.646900    0.997300    2.114300
H      0.251400    0.518700    3.058900
H      3.253000   -2.009500    4.595700
