19
gdb_16339
C     -0.261900    1.503600   -0.101300
C      0.093300    0.018700    0.072900
C      0.871500   -0.525000   -1.087200
N      0.240000   -0.807600   -2.406300
C      0.995800   -1.878600   -1.695800
C      2.460400   -1.657600   -2.066800
C      2.331700   -0.200400   -1.472600
O      2.519800    0.892600   -2.327600
H      0.638500    2.101600   -0.269600
H     -0.919500    1.651200   -0.963900
H     -0.772700    1.892100    0.784600
H      0.684500   -0.112500    0.988500
H     -0.820900   -0.574500    0.211100
H     -0.752900   -0.965200   -2.235700
H      0.501500   -2.803000   -1.421800
H      3.157900   -2.280800   -1.502200
H      2.693100   -1.710400   -3.133300
H      2.979400   -0.048800   -0.605200
H      1.831400    0.803800   -3.001800
