17
gdb_15175
C      0.319300    1.313300   -0.173300
O      0.426500   -0.091200   -0.146100
C      0.198600   -0.615100    1.148500
C      0.316400   -2.065700    1.136500
C      0.408400   -3.267400    1.144300
C      0.519700   -4.697300    1.169900
C      1.518700   -5.376100    0.288900
N      1.732100   -5.341500    1.737300
H      1.055900    1.794100    0.490400
H      0.508400    1.631600   -1.200800
H     -0.684700    1.654100    0.126500
H      0.920200   -0.187300    1.867200
H     -0.805300   -0.328400    1.508600
H     -0.395000   -5.234500    1.406900
H      1.280500   -6.354700   -0.117900
H      2.126600   -4.744000   -0.351200
H      2.408000   -4.615600    1.964500
