17
gdb_6517
C     -0.070700    1.553700   -0.049400
C      0.009500    0.044200   -0.001200
O     -1.162700   -0.591000   -0.426200
C      1.302900   -0.683100   -0.247400
C      0.690600   -0.675700    1.158800
C      1.383900    0.081500    2.283000
C      0.079400   -1.908900    1.594600
N     -0.375200   -2.892700    1.998500
H      0.848700    2.034900    0.289700
H     -0.248700    1.877800   -1.081600
H     -0.903500    1.910500    0.563400
H     -1.220500   -0.506800   -1.384500
H      1.253700   -1.613000   -0.801400
H      2.215100   -0.110000   -0.377600
H      1.896700    0.968200    1.905200
H      0.666600    0.397200    3.046300
H      2.129600   -0.558100    2.763700
