13
gdb_15290
N      0.089800   -1.093900   -0.519600
C      0.069200   -0.023100   -0.088500
C      0.024000    1.341200    0.443200
N      1.320600    1.993500    0.249200
C      1.547100    2.655500   -1.023200
C      1.343000    3.464300    0.225300
C      0.124500    4.223200    0.370400
N     -0.854800    4.822100    0.513300
H     -0.814900    1.874100   -0.031100
H     -0.185100    1.299100    1.517300
H      2.547000    2.562300   -1.434400
H      0.739200    2.669800   -1.751700
H      2.200400    3.903100    0.726800
