18
gdb_18391
C     -0.060600    1.468500    0.034800
C      1.315500    0.878900    0.069300
O      1.936800    0.943100    1.314400
C      2.776700   -0.152400    1.642900
C      2.156400   -1.543200    1.379800
C      0.687700   -1.624500    1.722600
C     -0.235100   -0.940100    1.045200
C      0.118400   -0.036800   -0.084700
H     -0.428000    1.852000    0.979900
H     -0.371000    2.023600   -0.843200
H      1.976900    1.023500   -0.786300
H      3.734600   -0.081100    1.103500
H      2.986800   -0.025400    2.709500
H      2.293000   -1.798000    0.322600
H      2.735300   -2.277900    1.948800
H      0.388300   -2.263400    2.549300
H     -1.288000   -1.036400    1.303200
H     -0.055900   -0.441000   -1.081600
