15
gdb_10107
C      0.280500    1.525500    0.019900
O     -0.068200    0.149900    0.079700
C      0.570500   -0.566100    1.109000
C     -0.083900   -1.954000    1.182200
C     -1.543900   -1.879400    1.596800
O     -2.071400   -2.687400    2.314800
C      2.026900   -0.686500    0.866500
N      3.162000   -0.770900    0.667800
H      1.348700    1.659900   -0.192900
H     -0.306000    1.959800   -0.791100
H      0.035500    2.039700    0.960300
H      0.448600   -0.044200    2.073500
H     -0.036000   -2.396100    0.178800
H      0.452100   -2.610700    1.870800
H     -2.105400   -1.021000    1.172000
