8
gdb_23876
F      0.041300    0.069700   -0.069100
C     -0.017100    1.385100    0.009900
F      1.218600    1.889800    0.015700
F     -0.668600    1.870100   -1.049300
C     -0.751800    1.821600    1.304000
O     -1.190100    1.041100    2.097300
C     -0.856400    3.276500    1.460100
N     -0.939000    4.422700    1.583500
