14
gdb_9563
C     -0.052600    1.540500   -0.052800
C      0.017900    0.023100   -0.016000
C      1.339800   -0.677500   -0.237400
C      0.732600   -0.691600    1.148600
C      1.312400    0.094800    2.200600
N      1.779700    0.732500    3.044800
C     -1.162100   -0.654600   -0.499100
N     -2.110200   -1.189500   -0.889300
H      0.859600    1.975600    0.361400
H     -0.168900    1.887200   -1.083100
H     -0.901200    1.904700    0.532100
H      1.346300   -1.615200   -0.778900
H      2.200800   -0.040000   -0.399300
H      0.288900   -1.623900    1.479100
