14
gdb_10790
N     -0.182200    1.346200   -0.036900
C      0.012800    0.094200    0.114200
C     -1.135700   -0.855100   -0.154400
O     -1.169700   -1.985800    0.733100
C     -0.026300   -2.668100    0.953400
O     -0.035300   -3.719800    1.527200
C      1.246800   -2.007800    0.430200
N      1.155100   -0.561000    0.495000
H      0.674800    1.883200    0.112400
H     -2.076000   -0.325700   -0.018000
H     -1.085100   -1.215500   -1.190600
H      2.068500   -2.359400    1.054700
H      1.429100   -2.381300   -0.591600
H      2.006700   -0.030700    0.590000
