13
gdb_14604
N     -0.318700    1.098000   -0.105800
C     -0.420800   -0.137800    0.109700
O     -0.452000   -0.997600   -0.937800
C     -0.650700   -2.370800   -0.615000
C     -2.029300   -2.694200   -0.267100
C     -3.168500   -2.968000    0.024900
C     -4.539100   -3.262900    0.364800
O     -4.944900   -4.363700    0.654800
H     -0.286500    1.607300    0.774800
H     -0.481100   -0.634700    1.087500
H     -0.353500   -2.927700   -1.508500
H      0.018600   -2.681700    0.199800
H     -5.209400   -2.380600    0.339200
