19
gdb_15687
C     -0.148600    1.479200    0.082300
C      0.059900   -0.033900   -0.042000
N      0.729900   -0.431900   -1.264500
C      0.114500   -0.339700   -2.578100
C      1.084400   -1.132200   -3.481500
C      2.433300   -1.020800   -2.756300
C      2.056300   -0.783200   -1.292500
O      2.785000   -0.866700   -0.324300
H      0.811700    2.002800    0.065600
H     -0.768800    1.871900   -0.730000
H     -0.649700    1.713800    1.026600
H      0.688400   -0.395500    0.775900
H     -0.906100   -0.552600    0.017200
H     -0.894200   -0.768900   -2.565700
H      0.020700    0.706300   -2.906000
H      0.768300   -2.178600   -3.524800
H      1.101300   -0.747500   -4.503100
H      3.071800   -1.900900   -2.848800
H      3.016800   -0.157600   -3.098000
