17
gdb_13546
C      0.049900    1.546500   -0.244700
C      0.014500    0.060100    0.017600
N      1.293100   -0.672900   -0.012400
C      0.538500   -0.593800    1.245900
C      1.188200    0.182400    2.383600
O      0.214000    0.850600    3.183800
C      2.038500   -0.696900    3.191700
C      2.682200   -1.449500    3.873500
H      0.961700    2.001000    0.148000
H      0.019600    1.743800   -1.321500
H     -0.809700    2.041100    0.218600
H     -0.844000   -0.445000   -0.425300
H      1.187400   -1.588300   -0.439700
H      0.016000   -1.489600    1.581100
H      1.805300    0.974600    1.950200
H     -0.198600    0.190600    3.751500
H      3.273900   -2.097400    4.472200
