14
gdb_11447
O      0.074600    1.379900    0.113100
C      0.043300   -0.024000    0.026900
C     -1.383100   -0.553400   -0.088800
C     -1.496200   -2.087300   -0.031500
O     -1.956800   -2.347400    1.296200
C     -2.366900   -1.197600    1.887200
O     -2.867600   -1.125200    2.961800
O     -2.122900   -0.134700    1.072400
H     -0.460300    1.629500    0.875800
H      0.604600   -0.303400   -0.872000
H      0.532800   -0.505900    0.890300
H     -1.873900   -0.118900   -0.962900
H     -2.220300   -2.487300   -0.747100
H     -0.535300   -2.589300   -0.173500
