17
gdb_13257
O     -0.099200    0.244900    0.611100
C      0.036500    1.274900   -0.015800
N      1.195700    1.704800   -0.579200
C      2.455700    0.998200   -0.451600
C      3.520400    1.919000    0.122800
C      4.997100    1.518700   -0.079200
C      5.086700    2.809300   -0.918700
O      3.685700    3.098000   -0.708500
H     -0.794900    1.983600   -0.200600
H      1.216800    2.597300   -1.048300
H      2.282200    0.139200    0.201900
H      2.785200    0.626600   -1.431400
H      3.251100    2.206700    1.147100
H      5.606500    1.496700    0.824400
H      5.144600    0.590400   -0.635100
H      5.727900    3.597400   -0.506400
H      5.323300    2.680400   -1.981200
