12
gdb_5190
N     -0.101800    1.291200    0.009900
C     -0.004500    0.036300    0.002100
O     -1.159700   -0.694100    0.007200
C     -1.089300   -2.044300   -0.000400
C     -2.149100   -2.891200    0.002400
O     -1.635100   -4.164600   -0.007600
C     -0.303500   -3.997500   -0.016000
N      0.089600   -2.762100   -0.012100
H      0.828100    1.706200    0.005000
H      0.894600   -0.580500   -0.008200
H     -3.217100   -2.781000    0.010300
H      0.305700   -4.887100   -0.024700
