14
gdb_19245
O     -0.179500    1.453300    0.119500
C     -0.037900    0.068900   -0.008100
C     -1.358800   -0.678000   -0.007700
C     -2.160000   -0.332600   -1.195600
N     -1.089800   -1.335900   -1.361600
C      0.203900   -0.560600   -1.436200
C      0.352100    0.362500   -2.550700
N      0.482800    1.119600   -3.414800
H      0.688000    1.868200    0.058400
H      0.681800   -0.342300    0.709300
H     -1.752600   -1.244800    0.827800
H     -3.147100   -0.776700   -1.267800
H     -2.058300    0.643500   -1.660500
H      1.036500   -1.267800   -1.438900
