12
gdb_402
C     -0.020800    1.507100    0.016500
C     -0.018500   -0.005300   -0.059400
C      0.766800   -0.703100   -1.099400
O      1.242600   -0.634400    0.240500
C     -1.181100   -0.663100    0.493500
C     -2.164900   -1.172400    0.959600
H      0.899600    1.905000   -0.417400
H     -0.878900    1.917400   -0.524100
H     -0.087000    1.834200    1.058100
H      0.451000   -1.688300   -1.437000
H      1.317200   -0.107800   -1.827600
H     -3.027800   -1.635200    1.371100
