16
gdb_20839
C      0.009600    1.548600   -0.163600
C     -0.046400    0.041900    0.140000
C     -1.440700   -0.492100    0.133900
N     -2.114000   -0.847300    1.226000
N     -3.280700   -1.223600    0.714200
C     -4.382600   -1.715500    1.515400
N     -3.346100   -1.116900   -0.606300
N     -2.184700   -0.652600   -0.990700
H      1.045700    1.898700   -0.177800
H     -0.439700    1.762900   -1.137100
H     -0.533600    2.120900    0.594500
H      0.537200   -0.503000   -0.609600
H      0.397100   -0.167100    1.117400
H     -4.687300   -0.952600    2.234900
H     -5.202800   -1.940800    0.835000
H     -4.078500   -2.617200    2.051400
