15
gdb_15860
C     -0.392900    1.417000    0.144300
C      0.089500   -0.013200    0.075800
O      1.302100   -0.139400   -0.761200
C      2.035700   -0.657000    0.276700
N      3.238600   -0.997400    0.362600
C      0.876800   -0.639400    1.256600
C      1.094500    0.096200    2.560600
O      0.336300    0.905900    3.027000
H      0.393600    2.087000    0.498100
H     -0.709200    1.742700   -0.851100
H     -1.239200    1.496700    0.830700
H     -0.683700   -0.675300   -0.323600
H      3.735700   -0.854500   -0.518000
H      0.555700   -1.656600    1.511600
H      2.032700   -0.196500    3.078300
