17
gdb_12538
O      0.027200    1.393100    0.116400
C      0.007300   -0.024200   -0.006200
C     -1.448600   -0.456800    0.075300
C     -1.637900   -1.975000    0.145600
N     -1.232100   -2.794400   -0.984600
C     -0.152000   -2.689400   -1.621700
O      0.883600   -1.802200   -1.543500
C      0.642100   -0.410300   -1.344900
H      0.944300    1.681800    0.167900
H      0.577700   -0.500400    0.808500
H     -1.891800   -0.010300    0.972100
H     -1.989800   -0.047100   -0.786700
H     -1.110300   -2.358000    1.032600
H     -2.699400   -2.179000    0.319400
H      0.097100   -3.449100   -2.364500
H      0.013800   -0.023000   -2.158100
H      1.631000    0.051700   -1.430400
