16
gdb_16711
O     -0.084200    1.400000    0.004000
C     -0.031300   -0.013200    0.018400
C      0.475300   -0.622300    1.381000
C     -0.805900   -1.347600    1.839900
C     -1.253600   -2.027500    0.500700
C     -1.467600   -0.560100   -0.003300
C     -1.886100   -0.312200    1.462700
O     -2.774700    0.250200    2.025600
H      0.816400    1.738500    0.027100
H      0.548900   -0.390400   -0.834700
H      1.310600   -1.315900    1.249000
H      0.783400    0.174100    2.064000
H     -0.804500   -1.864400    2.797100
H     -0.491000   -2.612700   -0.019500
H     -2.183800   -2.591200    0.582100
H     -2.094700   -0.300400   -0.852500
