15
gdb_1797
O     -0.091500    1.358600   -0.308600
C      0.013800   -0.003900    0.112600
C     -1.385100   -0.561100    0.067000
O     -2.284000    0.152900    0.864500
C     -1.905700   -1.177500   -1.223800
C     -1.618600   -2.029300   -0.001500
O     -0.493900   -2.861900    0.027100
H      0.698300    1.824800   -0.021700
H      0.684300   -0.581000   -0.534700
H      0.391300   -0.064300    1.143200
H     -2.152600    1.079700    0.625000
H     -2.943500   -0.997500   -1.479600
H     -1.216800   -1.251500   -2.058700
H     -2.481800   -2.388200    0.558400
H     -0.656800   -3.596400   -0.573900
