16
gdb_6653
C     -0.122300    1.407400    0.162600
C     -0.286400   -0.098400    0.275900
O      0.299100   -0.765000    1.111000
N     -1.125000   -0.673100   -0.639400
C     -1.310300   -2.109900   -0.690200
C     -2.189200   -2.622400    0.476100
C     -2.428500   -4.058900    0.383600
N     -2.609900   -5.195600    0.281200
H     -0.152100    1.840300    1.164300
H      0.863400    1.624100   -0.260700
H     -0.882000    1.884500   -0.462100
H     -1.604800   -0.095700   -1.308300
H     -1.768000   -2.367600   -1.647900
H     -0.334200   -2.598900   -0.632900
H     -1.680600   -2.394300    1.417100
H     -3.151900   -2.099900    0.479700
