15
gdb_862
C      0.122500    1.450900   -0.055100
C     -0.073000   -0.022400   -0.038200
C     -1.169300   -0.825300   -0.069500
C     -0.688200   -2.176600   -0.027100
C      0.668000   -2.103700    0.027100
C      1.750000   -3.120900    0.088400
O      1.055700   -0.792300    0.020900
H      0.715700    1.770500   -0.919800
H     -0.846900    1.951900   -0.103100
H      0.643700    1.800200    0.843900
H     -2.196100   -0.496800   -0.116900
H     -1.275800   -3.081600   -0.035900
H      2.428800   -3.041900   -0.768800
H      2.356800   -3.012000    0.995000
H      1.315500   -4.123100    0.087700
