17
gdb_13007
C     -0.041900    1.497800    0.021400
C      0.127400    0.004600   -0.013600
N     -0.793900   -0.877600    0.743400
C      0.668000   -0.827400    1.084700
C      1.429300   -1.948900    0.453200
C      1.346300   -1.875200   -0.875800
C      0.510800   -0.688700   -1.338300
O     -0.628300   -1.071200   -2.090100
H      0.875100    2.005100   -0.297500
H     -0.846500    1.809000   -0.654800
H     -0.287200    1.850100    1.029200
H     -1.309000   -0.305800    1.412600
H      0.955100   -0.410800    2.044600
H      1.931200   -2.722300    1.022800
H      1.745100   -2.592900   -1.583500
H      1.081000   -0.014300   -1.988700
H     -1.209200   -1.501900   -1.446100
