14
gdb_9709
C      0.035100    1.477400    0.063700
C     -0.025200   -0.056800   -0.001200
C      0.786100   -0.654500   -1.202900
O      1.802100   -1.462400   -0.571500
C      1.582000   -1.356400    0.755400
N      0.629800   -0.643600    1.195100
C     -1.430200   -0.497200   -0.049100
N     -2.532700   -0.834600   -0.122000
H      1.080900    1.794500    0.097100
H     -0.446400    1.922000   -0.811900
H     -0.467600    1.834700    0.964300
H      0.188800   -1.293600   -1.855000
H      1.277900    0.121000   -1.795000
H      2.276900   -1.915400    1.371900
