16
gdb_16000
O      0.017900    1.417300   -0.205000
C      0.017500    0.100600    0.307000
C     -1.334800   -0.555000    0.082300
O     -1.647700   -0.571800   -1.340900
C     -1.803100   -2.010900   -1.361700
C     -1.433400   -2.079100    0.115600
C     -0.726800   -3.085800    0.904500
O     -2.129500   -2.824200    1.084900
H     -0.286600    1.347500   -1.118300
H      0.802800   -0.516900   -0.158700
H      0.233200    0.169800    1.379100
H     -2.119800   -0.040600    0.650400
H     -2.833700   -2.314000   -1.582000
H     -1.117600   -2.492800   -2.068400
H     -0.485800   -4.050000    0.459200
H     -0.087200   -2.782000    1.731800
