18
gdb_13268
C     -0.659200    1.544500   -0.188000
C      0.277200    0.377500    0.174600
C      0.992300   -0.166100   -0.974700
C      1.566700   -0.603300   -1.939900
C      2.272000   -1.128600   -3.094300
C      3.694900   -1.715900   -2.875500
C      3.103100   -3.001500   -3.481700
O      1.783200   -2.421900   -3.547700
H     -0.096300    2.372100   -0.628000
H     -1.412500    1.226000   -0.913500
H     -1.172900    1.912700    0.705000
H      1.002500    0.708000    0.929400
H     -0.302000   -0.425700    0.648100
H      2.230300   -0.401500   -3.917300
H      4.494100   -1.231900   -3.437900
H      3.977800   -1.792900   -1.825800
H      3.482400   -3.265000   -4.477400
H      3.125600   -3.894300   -2.846400
