9
gdb_56
C     -0.006900    1.495600   -0.010600
C     -0.029900   -0.015900    0.062500
O     -0.088200   -0.632200    1.103300
C      0.023400   -0.702600   -1.220600
C      0.067400   -1.260600   -2.286200
H      0.904300    1.832800   -0.516600
H     -0.853400    1.855600   -0.605500
H     -0.052400    1.911000    0.997000
H      0.104700   -1.770400   -3.218300
