16
gdb_15554
C     -0.044800    1.476500    0.023700
N     -0.053000    0.036000    0.162400
C     -1.359500   -0.623200    0.099600
C     -1.161100   -1.861300    0.927500
C     -0.015500   -1.807600    1.595600
C      0.695500   -0.502400    1.297300
C      2.126600   -0.671500    0.972200
N      3.251600   -0.792800    0.738500
H      0.986600    1.839000   -0.023700
H     -0.537700    1.757900   -0.911600
H     -0.558300    2.000000    0.852300
H     -2.170300    0.000100    0.524500
H     -1.641700   -0.839800   -0.940100
H     -1.888300   -2.661900    0.972200
H      0.388600   -2.539400    2.281600
H      0.657500    0.157200    2.188100
