22
gdb_6986
C     -0.232600    1.515900   -0.069500
C      0.060900    0.017200   -0.027400
C      0.989800   -0.497600   -1.136700
C      1.404100   -1.860800   -0.582100
O      1.430900   -1.723800    0.835000
C      0.751800   -0.520600    1.258300
C      1.813200    0.428500    1.831800
C     -0.258000   -0.910000    2.339300
H      0.685900    2.110300   -0.045900
H     -0.770600    1.775900   -0.986900
H     -0.856500    1.828200    0.775000
H     -0.893000   -0.519900   -0.119800
H      0.497800   -0.565600   -2.110900
H      1.859000    0.161400   -1.246900
H      0.677500   -2.636500   -0.871100
H      2.392700   -2.188300   -0.923100
H      2.521000    0.749900    1.062100
H      1.362200    1.319300    2.280000
H      2.379900   -0.095800    2.606400
H      0.253100   -1.333700    3.209000
H     -0.831700   -0.038500    2.673200
H     -0.956500   -1.659400    1.956100
