20
gdb_6980
C     -0.320600    1.580700    0.036300
C      0.018900    0.088700    0.040400
C     -1.262500   -0.756200   -0.067100
C      1.007300   -0.308900   -1.071700
O      1.562000   -1.558400   -0.668900
C      1.550100   -1.628100    0.753900
C      0.840200   -0.362400    1.273200
O      1.766100    0.670000    1.592600
H      0.575200    2.193300    0.146800
H     -0.818000    1.853200   -0.901200
H     -1.003400    1.829800    0.855600
H     -1.831900   -0.467200   -0.956600
H     -1.038300   -1.823300   -0.150400
H     -1.908500   -0.606800    0.804600
H      0.527600   -0.452600   -2.045200
H      1.794900    0.451900   -1.174200
H      1.030900   -2.545500    1.060800
H      2.578100   -1.676400    1.142000
H      0.196400   -0.581500    2.137200
H      2.372700    0.332000    2.258200
