11
gdb_21782
O     -0.066700   -0.016800   -0.001500
C      0.006500    1.182000    0.007700
C      1.283600    1.962600    0.000800
C      1.260800    3.359000    0.012300
N      2.386400    4.062400    0.006000
C      3.494500    3.318600   -0.012100
N      3.569900    1.981200   -0.022900
N      2.442700    1.291500   -0.016700
H     -0.901700    1.825600    0.022400
H      0.321500    3.909400    0.026500
H      4.447400    3.839300   -0.016500
