18
gdb_14640
C     -0.009700    1.497800    0.009400
C     -0.006000    0.044700   -0.084900
C      0.010700   -1.156600   -0.168200
C     -0.008700   -2.611900   -0.253500
C     -1.350700   -3.217300    0.239300
C     -1.370100   -4.672600    0.154000
C     -1.353400   -5.873800    0.070700
C     -1.349800   -7.326900   -0.023600
H      0.809000    1.859200    0.641700
H      0.104000    1.962500   -0.976400
H     -0.947000    1.866300    0.441300
H      0.164700   -2.934500   -1.286900
H      0.808900   -3.038400    0.339800
H     -1.524100   -2.894600    1.272800
H     -2.168300   -2.790700   -0.353900
H     -2.165500   -7.688000   -0.660000
H     -0.410600   -7.695800   -0.450900
H     -1.468600   -7.791600    0.961500
