17
gdb_20579
C      0.005200    1.505200    0.128500
C      0.008400    0.022200   -0.049900
C     -0.012000   -0.766200   -1.188300
C     -0.081100   -0.347800   -2.623000
C      0.025500   -2.097000   -0.689000
N     -0.055700   -3.267000   -1.451300
N      0.069600   -2.141100    0.637100
N      0.051000   -0.832600    1.002500
H      1.019600    1.913300    0.216200
H     -0.470800    1.995300   -0.724700
H     -0.547200    1.797300    1.028000
H      0.880500   -0.459000   -3.142700
H     -0.813700   -0.950000   -3.172600
H     -0.374900    0.701600   -2.722400
H      0.560000   -3.258500   -2.254600
H      0.132100   -4.083400   -0.882200
H      0.058300   -0.601300    1.980100
