13
gdb_9006
C      0.094500    1.502800   -0.003500
C      0.030400    0.050700    0.052100
C     -0.025200   -1.149700    0.097400
C     -0.100800   -2.597000    0.149700
C     -1.476100   -3.163600   -0.185300
O     -2.452600   -2.529000   -0.475100
C     -1.530300   -4.643000   -0.125800
N     -1.559400   -5.797800   -0.075800
H      0.827000    1.839500   -0.744800
H     -0.877600    1.926100   -0.277900
H      0.381000    1.924700    0.965800
H      0.615400   -3.070000   -0.539000
H      0.171100   -2.986000    1.142600
