17
gdb_14015
O      0.493000   -0.016700   -0.626300
C      0.256200    1.050200   -0.114200
N      1.176400    1.828900    0.563600
C      2.552900    2.008800    0.145400
C      1.599800    3.163800    0.214200
C      1.158200    4.041400   -0.965900
C      1.639600    5.271400   -0.138300
C      1.667900    4.381000    1.140700
H     -0.758900    1.490700   -0.075500
H      3.303400    1.881300    0.921400
H      2.822500    1.616200   -0.832500
H      1.630600    3.855800   -1.933200
H      0.072200    4.040400   -1.098300
H      2.638700    5.598700   -0.434500
H      0.977200    6.137900   -0.119600
H      0.758000    4.483500    1.739200
H      2.535000    4.460500    1.800100
