16
gdb_5100
C      0.032700    1.429300    0.016500
N      0.028200   -0.016000    0.029500
C     -0.002200   -0.779000   -1.122300
N     -0.030000   -0.337600   -2.313200
O      0.004000   -2.094300   -0.718000
C      0.038000   -2.114000    0.668400
C      0.053200   -0.863300    1.145600
C      0.089000   -0.356600    2.543400
H      0.936800    1.831400    0.487100
H      0.008000    1.737200   -1.029500
H     -0.844300    1.837400    0.530900
H     -0.048400   -1.102500   -2.981000
H      0.046400   -3.079800    1.140800
H      0.104300   -1.195200    3.242800
H      0.978400    0.256400    2.730400
H     -0.786900    0.260800    2.774100
