20
gdb_12966
C      0.034100    1.638100   -0.311600
C      0.160900    0.137600   -0.150400
C      1.425500   -0.621500   -0.410000
O      2.568000    0.129400    0.016500
C      2.152000   -0.012600    1.408100
C      2.245200    1.251000    2.241000
C      0.822000   -0.646800    0.982800
C      0.119700   -1.724100    1.758400
H      1.014100    2.116600   -0.267700
H     -0.405500    1.873100   -1.287200
H     -0.608900    2.082300    0.455800
H     -0.710200   -0.417600   -0.498800
H      1.580900   -1.387400   -1.162800
H      2.779500   -0.791700    1.867500
H      3.276500    1.619500    2.247100
H      1.596200    2.046000    1.872300
H      1.964900    1.028100    3.276600
H     -0.439700   -1.309200    2.606000
H     -0.596600   -2.263200    1.130000
H      0.830900   -2.457300    2.156700
