15
gdb_12997
O      0.128800    1.356500   -0.109100
C      0.005100   -0.015300   -0.031500
C     -0.470700   -0.830800   -1.210500
C     -1.295400   -0.782100    0.055800
C     -1.037400   -1.908200    1.037000
O      0.385900   -1.887300    1.318300
C      0.930600   -0.715900    0.898500
N      2.042200   -0.225400    1.245900
H      0.998100    1.551500    0.273100
H     -0.836300   -0.237700   -2.041100
H      0.040300   -1.749900   -1.483000
H     -2.255100   -0.281800    0.058800
H     -1.575900   -1.761400    1.979900
H     -1.272900   -2.901800    0.643800
H      2.515900   -0.799000    1.942900
