13
gdb_3679
C     -0.057500    1.566200   -0.019300
C     -0.009100    0.071400   -0.023700
C     -0.125500   -0.806400   -1.083000
N     -0.015300   -2.060600   -0.585400
N      0.169600   -2.075800    0.759000
C      0.171900   -0.792800    1.084700
O      0.333300   -0.377700    2.360800
H      0.870200    1.999000    0.371600
H     -0.208300    1.957500   -1.029200
H     -0.872000    1.941900    0.609900
H     -0.276300   -0.624600   -2.136200
H     -0.055800   -2.932700   -1.080900
H      0.436100   -1.168400    2.904800
