13
gdb_582
O     -0.319000    0.568400    0.814600
C      0.044500    1.195100   -0.145600
C      1.453200    1.738900   -0.325100
N      1.446900    2.880100   -1.224600
C      1.334300    4.198000   -0.600800
C      2.622700    3.742000   -1.191500
H     -0.631400    1.414000   -1.001900
H      1.886900    1.938200    0.669100
H      2.049900    0.937100   -0.784600
H      0.709900    4.915200   -1.124800
H      1.273400    4.244500    0.485300
H      3.424400    3.487500   -0.500600
H      2.954000    4.122100   -2.153500
