12
gdb_23786
N     -0.022600    1.399400   -0.131500
C      0.036700    0.032300   -0.048800
C     -1.142100   -0.751000   -0.017200
N     -1.154500   -2.069800    0.018900
N     -0.006300   -2.755600    0.025500
C      1.112500   -2.063500   -0.003100
F      2.228400   -2.782800    0.007600
C      1.229700   -0.679800   -0.038700
H      0.804200    1.923000    0.107000
H     -0.887500    1.845100    0.128900
H     -2.118300   -0.272000   -0.022400
H      2.203700   -0.205600   -0.058900
