16
gdb_18903
C      0.005200    1.567600   -0.034000
C      0.037200    0.070500   -0.067200
C      0.614900   -0.885600   -1.164800
C     -0.443400   -1.887300   -0.764600
C      0.914400   -1.873800   -0.061500
C      0.561400   -0.874400    1.072200
O     -0.777000   -1.169900    1.528500
C     -1.181100   -0.891600    0.169800
H      1.016400    1.988400   -0.071000
H     -0.554600    1.972900   -0.884600
H     -0.474700    1.919300    0.885900
H      1.103500   -0.707700   -2.111800
H     -0.821000   -2.746700   -1.300800
H      1.583600   -2.722800   -0.055700
H      1.267100   -0.631900    1.866000
H     -2.240200   -0.666600    0.049700
