16
gdb_10440
C     -0.215100   -1.113700   -0.498500
C     -0.090700    0.020600   -0.122700
C      0.065500    1.401500    0.321800
C      1.477400    1.960700    0.103200
C      1.832300    2.458600   -1.287500
C      1.603900    3.450200   -0.183000
C      2.512500    1.340000    0.885200
C      3.367500    0.822500    1.554400
H     -0.323200   -2.118300   -0.824400
H     -0.648400    2.038800   -0.214700
H     -0.189300    1.478300    1.385900
H      2.846300    2.295600   -1.631200
H      1.071300    2.350500   -2.052600
H      0.688100    4.031800   -0.189900
H      2.462500    3.962600    0.233600
H      4.123600    0.358500    2.137500
