20
gdb_19287
C     -0.004000    1.563000    0.110800
C      0.089800    0.032800    0.114700
C      0.670400   -0.533700   -1.178100
C      0.897900   -2.046100   -1.301300
C     -0.402300   -2.798000   -1.291900
C      0.022100   -2.109600   -2.559200
C     -0.247400   -0.615000   -2.468000
O     -1.621000   -0.303100   -2.339900
H      0.980500    2.022700   -0.031900
H     -0.653100    1.924500   -0.695000
H     -0.415100    1.940700    1.052100
H      0.718200   -0.290700    0.954600
H     -0.904500   -0.390300    0.289700
H      1.589800    0.007900   -1.429700
H      1.843900   -2.544000   -1.124900
H     -0.306700   -3.878900   -1.311700
H     -1.262200   -2.439400   -0.736000
H      0.184300   -2.655700   -3.480200
H      0.199800   -0.066100   -3.306100
H     -1.717900    0.654000   -2.360800
