14
gdb_9454
O      0.162400    1.518400    0.237900
C      0.010000    0.130700    0.055900
C     -1.483900   -0.297900   -0.112000
C     -1.146500   -1.080900   -1.416800
C      0.214000   -0.377100   -1.421100
O      1.046200   -0.134200   -2.240500
C      0.765200   -0.669400    1.011000
C      1.423400   -1.332500    1.768800
H      1.102300    1.722900    0.163900
H     -1.904600   -0.871500    0.712100
H     -2.090600    0.589200   -0.300300
H     -1.036500   -2.158100   -1.257100
H     -1.773800   -0.918400   -2.295500
H      1.999000   -1.914200    2.446300
