15
gdb_9069
O      0.001900    1.444800   -0.073200
C      0.016100    0.046300   -0.007800
C      0.676800   -0.562900   -1.257200
C     -0.035400   -0.080200   -2.535000
C      0.582200   -0.610600   -3.747100
N      1.082300   -1.043000   -4.694800
C      0.732500   -0.417400    1.246700
O      1.205500    0.370800    2.028100
H      0.470300    1.751500    0.720100
H     -1.017500   -0.343400    0.059800
H      1.728500   -0.260500   -1.292500
H      0.646200   -1.656500   -1.201000
H     -1.090200   -0.379400   -2.519300
H     -0.014300    1.013200   -2.566000
H      0.799400   -1.512600    1.404800
