13
gdb_5497
N      0.079300    1.383200    0.159100
C      0.013600   -0.002900    0.044600
C     -1.069900   -0.827200    0.021600
O     -0.667100   -2.140800   -0.026200
C      0.674800   -2.148900   -0.033500
C      1.172300   -0.874200    0.005700
C      2.518400   -0.451500   -0.001600
C      3.649500   -0.035200   -0.017000
H      0.951900    1.759600   -0.187800
H     -0.707200    1.871600   -0.245300
H     -2.132800   -0.660400    0.039000
H      1.155300   -3.112100   -0.073600
H      4.653400    0.310000   -0.019500
