16
gdb_6202
C      0.123900    1.518400    0.068000
C     -0.058400    0.002100   -0.015800
O     -1.430500   -0.347900   -0.105700
C      0.770800   -0.609600   -1.175400
O      2.058200   -0.922100   -0.626900
C      1.986200   -1.036700    0.732400
O      2.932600   -1.338200    1.396200
C      0.565800   -0.722400    1.180800
H      1.182600    1.784900    0.147200
H     -0.272300    2.006300   -0.830800
H     -0.401900    1.917200    0.940000
H     -1.851900    0.234200   -0.746900
H      0.286100   -1.526800   -1.528000
H      0.921200    0.070100   -2.018500
H      0.569200   -0.157200    2.113500
H      0.034400   -1.664500    1.353800
