20
gdb_17578
C     -0.001500    1.528800    0.042800
C     -0.036800    0.025200    0.041200
C      1.151800   -0.828000   -0.339600
C      0.575800   -0.975000    1.050500
C      1.368400   -0.708700    2.300600
C     -0.687600   -1.806000    0.982700
C     -1.894700   -0.983800    1.354900
C     -1.294500   -0.814900   -0.017300
H      0.973600    1.906700    0.368400
H     -0.188100    1.931900   -0.960200
H     -0.762600    1.945000    0.712400
H      1.046500   -1.628100   -1.068600
H      2.102200   -0.302600   -0.395700
H      2.065000    0.125200    2.163700
H      0.713000   -0.462700    3.143700
H      1.962300   -1.584800    2.588700
H     -0.727300   -2.889300    0.936500
H     -2.836600   -1.523900    1.391200
H     -1.810500   -0.188700    2.091700
H     -1.852300   -1.052200   -0.917200
