11
gdb_686
O     -0.003300    0.048700    0.066800
C      0.022500    1.243100   -0.002200
N     -1.011700    2.205500   -0.008600
C     -0.057800    3.318400   -0.036000
C      0.901700    3.253000    1.107900
C      1.089200    2.326400   -0.099200
H     -1.805300    2.162300    0.621500
H     -0.233600    4.182700   -0.661900
H      1.635200    4.051600    1.178400
H      0.583200    2.843500    2.062200
H      1.982200    2.331600   -0.706600
