18
gdb_9502
C     -0.055900    1.699500    0.314400
C     -0.070200    0.182600    0.113500
C      0.937400   -0.347800   -0.942300
C      1.925100   -0.710400    0.199000
C      0.752500   -0.593200    1.208200
O      0.935900    0.124000    2.402800
C     -1.487600   -0.322400    0.001100
O     -1.886000   -1.101900   -0.828000
H      0.958900    2.064500    0.488300
H     -0.454900    2.203700   -0.572200
H     -0.658900    1.989100    1.180200
H      0.534800   -1.219200   -1.461900
H      1.282600    0.377900   -1.681100
H      2.442200   -1.671200    0.141800
H      2.658700    0.079700    0.378800
H      0.299900   -1.576800    1.400500
H      1.411600   -0.435100    3.025300
H     -2.172000    0.066700    0.792000
