9
gdb_3907
O     -0.001100   -0.037600    0.002800
C      0.039600    1.152000    0.008700
O     -1.200000    1.832600    0.028700
N     -1.309700    3.196900    0.037600
C     -0.203000    3.855900    0.026500
C      1.079400    3.198500    0.005900
N      1.207900    1.918100   -0.002700
H     -0.298400    4.936000    0.033700
H      1.987400    3.802300   -0.002900
