20
gdb_6604
C     -0.018800    1.521300    0.036100
C      0.041800   -0.007000   -0.066700
C      0.736000   -0.500300   -1.310800
C      2.212900   -0.223400   -1.751300
C      1.605400   -1.123900   -2.846200
O      2.318300   -1.541800   -3.954600
C      0.976100   -1.989000   -1.711800
C      0.325600   -0.234700   -2.795500
H      0.985600    1.956900    0.045600
H     -0.560800    1.953500   -0.811500
H     -0.527600    1.833600    0.953100
H      0.558200   -0.414900    0.812100
H     -0.975600   -0.419000   -0.041300
H      2.457800    0.801200   -2.043800
H      2.998300   -0.667800   -1.133300
H      1.740200   -2.086200   -4.499800
H      1.669800   -2.559000   -1.087100
H      0.086000   -2.573200   -1.967500
H     -0.610900   -0.693200   -3.129900
H      0.428700    0.789900   -3.162700
