17
gdb_1541
C     -0.016600    1.572300    0.041700
C      0.019400    0.042200    0.014700
C      0.690200   -0.505100   -1.249000
C      0.692500   -2.045500   -1.309500
N     -0.675000   -2.569000   -1.371200
C      1.536800   -2.513500   -2.431900
N      2.159400   -2.895800   -3.328500
H      0.992400    1.997400   -0.001200
H     -0.578800    1.970900   -0.810000
H     -0.493800    1.939500    0.955200
H      0.559600   -0.328900    0.895900
H     -0.994800   -0.362500    0.084200
H      0.182100   -0.122700   -2.144400
H      1.726200   -0.153200   -1.311000
H      1.146500   -2.426800   -0.386200
H     -1.099900   -2.308200   -2.257300
H     -0.663800   -3.584100   -1.345800
