18
gdb_16450
O     -0.065600    1.435000    0.050900
C     -0.008500    0.050800    0.050000
C     -0.287800   -0.759100   -1.180300
C     -1.176100   -0.932300    0.036900
C     -0.494700   -1.771100    1.140400
C      0.486700   -2.920200    0.748000
C      1.680500   -1.908800    0.778900
C      0.694100   -0.765500    1.163600
H      0.629300    1.768000   -0.527700
H     -0.758000   -0.183700   -1.972300
H      0.369400   -1.546800   -1.537400
H     -2.240800   -0.742900   -0.032300
H     -1.111200   -1.926400    2.026000
H      0.561900   -3.698100    1.511400
H      0.290300   -3.407200   -0.210600
H      2.410900   -2.128900    1.561300
H      2.223300   -1.773400   -0.161100
H      0.909200   -0.171700    2.052200
