17
gdb_2393
C      0.062500    1.570700   -0.183500
C      0.019000    0.069100   -0.013000
C      1.290100   -0.769700   -0.122100
C      0.599500   -0.596400    1.192200
C      1.107100   -0.007800    2.505300
C      0.381600   -1.215300    3.137400
O     -0.060000   -1.686000    1.843600
H      0.969200    1.993800    0.262300
H      0.057700    1.849900   -1.243000
H     -0.798000    2.053700    0.293100
H     -0.875700   -0.416400   -0.395700
H      1.215900   -1.742400   -0.596800
H      2.234400   -0.255800   -0.280300
H      2.191700    0.005700    2.628300
H      0.701200    0.971400    2.768300
H      1.026200   -1.947600    3.636900
H     -0.464100   -0.975000    3.791800
