19
gdb_5634
C     -0.071200    1.578400   -0.036100
C      0.046200    0.050700   -0.017200
N      0.716500   -0.490800   -1.187000
C      0.081100   -0.818300   -2.364100
C      1.029600   -1.213600   -3.274900
C      2.291700   -1.118000   -2.627900
C      2.078200   -0.667700   -1.342400
C      3.058900   -0.408700   -0.245100
H      0.916000    2.048300   -0.062900
H     -0.627800    1.911600   -0.916800
H     -0.595300    1.930900    0.858100
H      0.587800   -0.276100    0.875500
H     -0.949400   -0.401500    0.034900
H     -0.992500   -0.744000   -2.441400
H      0.839200   -1.544900   -4.284200
H      3.256500   -1.362700   -3.046900
H      3.062900    0.637000    0.088000
H      2.873500   -1.029000    0.641300
H      4.065400   -0.641700   -0.600200
