14
gdb_9244
N     -0.099500    1.476300    0.004400
C      0.016000    0.015000   -0.018200
C      0.698800   -0.552400   -1.282700
O     -0.070500   -0.087000   -2.376400
C      0.701800   -0.465200    1.176800
C      1.296900   -0.873400    2.145400
C      1.968000   -1.334000    3.241900
N      2.542500   -1.727700    4.171600
H      0.828600    1.888800    0.058600
H     -0.490500    1.759000   -0.890800
H     -1.006500   -0.388500   -0.008700
H      1.737000   -0.189300   -1.325600
H      0.720700   -1.651000   -1.234000
H      0.368500   -0.338700   -3.193700
