20
gdb_18753
C      0.534400    1.482500   -0.418800
C      0.079100    0.080600   -0.018200
C      0.531300   -1.109300   -0.927100
C      1.255900   -1.754600    0.274700
C      2.695600   -1.213500    0.522000
C      2.142700   -0.341800    1.687600
O      2.614400    0.963500    1.911500
C      0.690600   -0.638900    1.234000
H      1.596200    1.511300   -0.693200
H     -0.017200    1.822500   -1.302400
H      0.362400    2.210500    0.380900
H     -1.010300    0.099400    0.081900
H     -0.308200   -1.700000   -1.303500
H      1.171100   -0.848400   -1.777300
H      1.107800   -2.818900    0.456700
H      3.459200   -1.944100    0.799100
H      3.080300   -0.626000   -0.319100
H      2.308500   -0.864600    2.635600
H      2.524800    1.462100    1.094900
H     -0.028300   -0.833800    2.032000
