15
gdb_11366
C      0.005700    1.371300    0.007300
O     -0.038600   -0.062000    0.003500
C     -1.262000   -0.585000    0.011300
N     -2.377600    0.032800    0.021600
C     -3.401000   -1.020300    0.026300
C     -2.658700   -2.359700    0.016800
N     -3.188300   -3.512300    0.017500
N     -1.318500   -1.972600    0.007700
H      1.063900    1.632100   -0.000700
H     -0.498600    1.770600   -0.876100
H     -0.483800    1.765300    0.901400
H     -4.041800   -0.943700    0.911500
H     -4.055200   -0.938600   -0.848600
H     -2.489300   -4.256700    0.010000
H     -0.517600   -2.581200   -0.000100
