8
gdb_20
N      0.036100    1.360800   -0.124200
C     -0.025900   -0.020800    0.002000
N      1.219700   -0.623300    0.119600
O     -1.068200   -0.641700    0.008700
H      0.807500    1.834600    0.321400
H     -0.858300    1.803700    0.022400
H      1.999300   -0.173000   -0.336000
H      1.182000   -1.621500   -0.021100
