14
gdb_15219
O     -0.085300    1.396000    0.068500
C     -0.088800    0.011800   -0.003700
C     -1.410900   -0.740200   -0.020200
C     -2.695300    0.002700    0.036800
O     -3.679600   -0.428100    0.586300
C     -0.515200   -0.666700   -1.281400
C     -0.861400    0.168200   -2.392900
C     -1.087800    0.919600   -3.306100
H     -0.053600    1.749500   -0.830700
H      0.717600   -0.451300    0.559800
H     -1.439900   -1.705800    0.472300
H     -2.693100    0.994600   -0.455600
H     -0.019900   -1.598200   -1.536700
H     -1.320100    1.551300   -4.128100
