18
gdb_14364
C     -0.057300    1.545600    0.081600
C      1.463800    1.267800    0.052900
C      1.183500    0.064200    1.029000
C      0.093300   -0.002500   -0.079700
C     -0.901200   -0.875600   -0.792600
O     -0.794400   -0.425900   -2.160100
C      0.405600    0.361200   -2.396200
C      1.216700    0.246000   -1.112500
H     -0.471100    1.888200    1.033600
H     -0.485800    2.102200   -0.751900
H      2.273400    1.993800    0.142000
H      1.923100   -0.740700    1.040500
H      0.853600    0.326500    2.037500
H     -0.643000   -1.942300   -0.718200
H     -1.941800   -0.742300   -0.479100
H      0.929000   -0.071200   -3.255300
H      0.109300    1.382500   -2.661200
H      1.964500   -0.551100   -1.171500
