16
gdb_2849
C     -0.134600    1.636800   -0.328900
C      0.052200    0.211900    0.186400
N     -1.236600   -0.486500    0.165800
C     -1.549500   -1.323900   -0.961400
C     -1.321700   -1.936300    0.397800
C     -0.123000   -2.793700    0.583100
O     -0.117600   -3.785300    1.271200
H      0.810500    2.186400   -0.285900
H     -0.478000    1.634400   -1.368400
H     -0.877700    2.167800    0.271900
H      0.824900   -0.294000   -0.413200
H      0.404100    0.227900    1.224000
H     -2.563500   -1.277900   -1.349200
H     -0.775600   -1.489200   -1.712600
H     -2.177200   -2.252200    0.989200
H      0.787200   -2.474100    0.030100
