10
gdb_1942
O      0.122000    0.196700   -0.545000
C     -0.040500    1.255700   -0.044300
C     -1.197800    2.198200    0.290400
C     -0.077100    3.078800    0.892500
O      0.923700    2.092500    0.490500
C      0.145800    4.380200    0.273000
N      0.295900    5.420100   -0.206600
H     -1.710900    2.610400   -0.578600
H     -1.921300    1.800500    1.002500
H     -0.095500    3.178500    1.980100
