14
gdb_472
O     -0.226500    1.448200   -0.223700
C     -0.012000    0.056800   -0.014600
C     -1.385900   -0.616100   -0.066700
C     -1.585500   -0.770300   -1.576100
O     -0.293100   -1.077900   -2.099400
C      0.707200   -0.614300   -1.198600
H      0.627700    1.865900   -0.371500
H      0.515600   -0.118300    0.933000
H     -1.342300   -1.595200    0.420400
H     -2.150300   -0.008000    0.420200
H     -2.264900   -1.583100   -1.849600
H     -1.962100    0.165400   -2.012300
H      1.373500    0.096500   -1.708200
H      1.315500   -1.466400   -0.863200
