14
gdb_21011
C      0.019900    1.393000    0.094000
N     -0.018600   -0.050500   -0.013600
C     -0.092500   -0.799700   -1.143900
C     -0.054500   -2.117800   -0.752300
C      0.046900   -2.065700    0.660700
N      0.069700   -0.796000    1.097200
C      0.113900   -3.160600    1.558700
C      0.169700   -4.113900    2.291100
H      1.021900    1.733700    0.371600
H     -0.255600    1.828000   -0.868100
H     -0.688300    1.719700    0.857900
H     -0.166600   -0.341600   -2.117500
H     -0.099400   -2.994800   -1.375600
H      0.218900   -4.947400    2.946700
