16
gdb_19995
N     -0.185100   -1.156100    0.177900
C     -0.098600   -0.003900    0.138400
C      0.007100    1.432500    0.049200
N      0.557400    2.130500    1.230200
C      1.340900    2.121500   -0.005500
C      2.632500    1.378700    0.001600
C      3.483200    1.353700   -1.244800
C      3.933600    2.143700   -0.044200
H     -0.812500    1.895500   -0.493800
H      0.070200    3.013100    1.360500
H      1.344600    3.032600   -0.604600
H      2.616900    0.477500    0.605100
H      3.999200    0.432000   -1.486900
H      3.131500    1.904400   -2.111400
H      3.885500    3.226400   -0.101300
H      4.762100    1.768200    0.545100
