15
gdb_9065
C      0.124400    1.375700    0.142000
C     -0.005200   -0.142800    0.051100
O     -1.345200   -0.618500    0.040400
C     -2.004300   -0.526600    1.280400
C     -3.280600   -1.243100    1.194300
N     -4.291700   -1.798500    1.156800
C      0.626400   -0.697500   -1.225400
O      1.626300   -0.252400   -1.720600
H      1.163500    1.650600   -0.053900
H     -0.508600    1.853100   -0.611300
H     -0.154900    1.751700    1.129600
H      0.541800   -0.613100    0.889800
H     -1.403700   -0.975900    2.088200
H     -2.210200    0.515300    1.566100
H      0.081300   -1.568800   -1.646400
