11
gdb_921
O     -0.042900   -0.055600    0.003400
C      0.022100    1.152600    0.009000
N     -1.182500    1.909200    0.029000
C     -1.234900    3.258300    0.036500
C     -0.072100    3.966600    0.024500
C      1.125200    3.198300    0.004400
N      1.194700    1.895200   -0.003200
H     -2.025800    1.352600    0.037500
H     -2.221300    3.708600    0.052100
H     -0.060600    5.046700    0.029800
H      2.080600    3.725300   -0.005800
