13
gdb_20771
C     -0.032000    1.481800    0.037300
C     -0.009300   -0.014800    0.001000
N     -0.048700   -0.565300   -1.165900
O     -0.028500   -1.960500   -1.225200
C      0.030100   -2.687300   -0.103800
C      0.073500   -2.178500    1.142000
C      0.056300   -0.742900    1.304200
O      0.091200   -0.135200    2.363000
H      0.860500    1.851500    0.551300
H     -0.080800    1.891600   -0.971800
H     -0.889900    1.823200    0.624500
H      0.037600   -3.745900   -0.342400
H      0.120200   -2.826400    2.007600
