15
gdb_14086
O     -0.180700    1.430000   -0.041400
C     -0.062100    0.039800    0.020600
C     -0.477500   -0.688300    1.272800
C     -1.354600   -0.710600    0.048500
C     -2.769600   -0.158900   -0.178400
N     -3.012200   -1.378300   -0.967900
C     -1.740600   -1.893400   -0.827000
O     -1.192800   -2.876100   -1.251600
H      0.554300    1.814600    0.448000
H      0.740800   -0.393000   -0.576000
H      0.037100   -1.606200    1.537900
H     -0.816700   -0.080400    2.105400
H     -3.397800   -0.076000    0.713800
H     -2.807400    0.771100   -0.752900
H     -3.768600   -1.636900   -1.582400
