18
gdb_12927
C      0.102000    1.078000   -0.368200
O     -0.078800   -0.005700    0.522500
C     -1.304900   -0.645700    0.351900
C     -1.559500   -1.669600   -0.733000
C     -0.280500   -2.474000   -1.000100
C     -0.230400   -2.896800    0.502800
C     -1.492000   -2.064600    0.758000
O     -2.533200   -2.470800    1.576000
H      1.096400    1.489500   -0.179600
H      0.035700    0.756100   -1.417000
H     -0.646900    1.867300   -0.201300
H     -2.174000   -0.017700    0.562900
H     -2.415500   -1.594400   -1.393300
H     -0.443400   -3.320400   -1.669700
H      0.574400   -1.895800   -1.359500
H     -0.431900   -3.961800    0.635300
H      0.660200   -2.617500    1.071400
H     -2.394500   -2.094200    2.452300
