15
gdb_21075
C     -0.045900    1.415700   -0.039100
N      0.002400   -0.026800    0.016900
N     -0.086700   -0.759000   -1.110200
C     -0.032800   -2.029300   -0.702400
C      0.073600   -2.110800    0.697200
O      0.137800   -3.189600    1.538900
C      0.088000   -0.798800    1.138500
N      0.244000   -0.248000    2.421300
H      0.546200    1.821600    0.784100
H      0.372000    1.731700   -0.995300
H     -1.072900    1.792200    0.040300
H     -0.072800   -2.831600   -1.425700
H      0.396700   -3.962800    1.029700
H      0.606100   -0.955500    3.051400
H     -0.631600    0.089100    2.811800
