18
gdb_16248
C      0.311000    1.422000   -0.363000
C     -0.101800    0.048700    0.172700
O     -0.021500   -0.946900   -0.848500
C      1.270300   -1.541300   -0.784200
C      1.604200   -1.631000    0.711900
C      0.788000   -0.484000    1.306700
C      1.187600    0.300700    2.479300
O      0.177200   -0.707400    2.579600
H      1.367900    1.441600   -0.648100
H     -0.286700    1.666500   -1.245100
H      0.149200    2.201100    0.388300
H     -1.142100    0.077700    0.511900
H      1.213100   -2.513200   -1.280000
H      2.013500   -0.929900   -1.319900
H      1.240900   -2.569000    1.141400
H      2.674300   -1.551600    0.918500
H      2.127700    0.075000    2.982500
H      0.838700    1.325500    2.602400
