15
gdb_5677
C     -0.061800    1.457400    0.010500
C      1.397400    1.873400   -0.001200
C      2.188900    0.785800   -0.014700
C      1.365400   -0.407500   -0.013300
C      1.378700   -1.788600   -0.020700
C      0.016700   -2.205000   -0.010000
C     -0.782400   -1.075900    0.003800
N      0.049300    0.007600    0.001500
H     -0.591200    1.816000    0.902800
H     -0.608200    1.825700   -0.867500
H      1.706200    2.908800    0.001400
H      3.270100    0.780100   -0.025100
H      2.250400   -2.424100   -0.032500
H     -0.342900   -3.223000   -0.012000
H     -1.855600   -0.970200    0.014700
