20
gdb_12860
O     -0.019300    1.395900   -0.326600
C      0.019200    0.022400    0.007800
C      0.402200   -0.940800   -1.157200
C     -0.966200   -1.663700   -1.005600
C     -1.397200   -0.639600    0.087100
C     -1.542600   -1.191600    1.510200
C     -0.089500   -1.448300    1.963000
C      0.689700   -0.260300    1.366200
H      0.888600    1.714200   -0.381300
H      0.506600   -0.400600   -2.100900
H      1.293600   -1.555600   -0.999500
H     -1.587300   -1.666500   -1.903600
H     -0.893800   -2.692500   -0.641600
H     -2.213500    0.017200   -0.217000
H     -2.002300   -0.434800    2.157300
H     -2.170800   -2.087300    1.558600
H      0.015400   -1.521800    3.049100
H      0.277400   -2.392600    1.543000
H      1.766500   -0.446100    1.284900
H      0.546900    0.628900    1.991400
