11
gdb_712
N      0.006600    1.422100   -0.221000
C      1.301800    0.759300    0.058500
C      0.051000   -0.030300    0.067800
C      0.515200   -0.765100   -1.245600
O      0.759400    0.206000   -2.260800
C      1.751600    0.015000   -1.254600
H     -0.275600    1.879300    0.646900
H      1.945000    1.060700    0.874000
H     -0.489200   -0.475900    0.892100
H      0.295600   -1.781900   -1.546600
H      2.760700   -0.226500   -1.564500
