9
gdb_830
O     -0.052400    1.436000    0.009900
C      0.024700    0.031700    0.001700
C     -1.396600   -0.507600    0.012600
F     -2.088000   -0.107700   -1.058600
F     -1.361700   -1.850700    0.004800
F     -2.066800   -0.119800    1.101600
H      0.841600    1.789200    0.005500
H      0.515600   -0.367300   -0.897300
H      0.532800   -0.376700    0.886700
