16
gdb_4581
N     -0.016700    1.434900    0.116800
C      0.001900    0.029100    0.042400
C     -1.185600   -0.710400    0.044900
C     -1.166800   -2.099900    0.037500
C      0.040300   -2.806900    0.027400
N      0.059800   -4.213400    0.086800
C      1.227800   -2.067400    0.022900
C      1.209000   -0.677800    0.030300
H      0.802100    1.868800   -0.287600
H     -0.852000    1.846400   -0.277500
H     -2.139400   -0.190100    0.053800
H     -2.106200   -2.645900    0.040700
H     -0.764000   -4.643100   -0.312100
H      0.890100   -4.620600   -0.322100
H      2.181700   -2.587600    0.014500
H      2.148400   -0.131900    0.027600
