15
gdb_17599
C     -0.028500    1.381000   -0.240600
C      0.064500   -0.122600   -0.304000
O      1.102800   -0.738900   -0.332900
C     -1.298200   -0.857800   -0.289600
O     -2.326800   -0.261700   -0.044600
N     -1.234500   -2.180800   -0.648900
C     -0.502800   -3.254100   -0.016800
C     -2.006200   -3.251500   -0.066600
H      0.972800    1.811000   -0.213800
H     -0.580900    1.755500   -1.109100
H     -0.606300    1.683100    0.637500
H      0.061700   -3.898500   -0.683900
H     -0.021900   -3.043700    0.933500
H     -2.554900   -3.022100    0.843000
H     -2.521100   -3.901000   -0.768300
