8
gdb_166
N      0.018300    1.306300    0.009300
C      1.290300    1.767900   -0.000400
C      2.047800    0.622900   -0.014500
N      1.212600   -0.454700   -0.012100
N     -0.020700   -0.040000    0.002800
H     -0.845800    1.824100    0.020600
H      1.532500    2.816800    0.003100
H      3.119400    0.510100   -0.025900
