14
gdb_23911
C     -0.130400    1.503200   -0.178400
C      0.014100    0.002100   -0.052800
C      0.844100   -0.767000   -1.013700
N      1.282800   -0.590800    0.381500
C     -1.195000   -0.678000    0.556000
F     -2.297100   -0.413200   -0.171900
F     -1.061900   -2.004100    0.619300
F     -1.426700   -0.228300    1.800000
H      0.756200    1.930000   -0.655600
H     -1.004100    1.763600   -0.782100
H     -0.250500    1.962800    0.807400
H      0.576000   -1.784500   -1.277400
H      1.337300   -0.200600   -1.799100
H      1.992200    0.135100    0.445700
