12
gdb_214
C     -0.026400    1.383500    0.010400
C      1.170800    2.096600    0.002300
C      2.386900    1.416400   -0.013100
C      2.405700    0.023100   -0.020500
C      1.208600   -0.690000   -0.012400
C     -0.007500   -0.009800    0.003000
H     -0.973300    1.913200    0.022400
H      1.156000    3.181600    0.008000
H      3.319100    1.971700   -0.019500
H      3.352700   -0.506600   -0.032500
H      1.223300   -1.775000   -0.018100
H     -0.939800   -0.565100    0.009300
