22
gdb_6219
C     -0.198300    1.382500    0.251900
C     -0.032600   -0.084000   -0.128200
C      1.067300   -0.356200   -1.172200
C      1.704400   -1.686300   -0.709600
C      0.870600   -2.889000   -1.184500
C      3.162200   -1.839100   -1.150700
C      1.564400   -1.510200    0.814100
O      0.322200   -0.857600    1.031400
H      0.746000    1.794900    0.622800
H     -0.515900    1.972700   -0.614900
H     -0.952000    1.492600    1.036800
H     -0.998800   -0.467000   -0.487100
H      0.672200   -0.403900   -2.191000
H      1.816400    0.444200   -1.145000
H      0.843900   -2.941600   -2.278400
H      1.297300   -3.828400   -0.816200
H     -0.159800   -2.828300   -0.822000
H      3.769200   -0.988100   -0.823600
H      3.608000   -2.749400   -0.733800
H      3.239700   -1.907100   -2.241300
H      1.550600   -2.461000    1.358500
H      2.398500   -0.906000    1.208400
