12
gdb_21844
O     -0.074700    0.026400    0.114100
C     -0.002400    1.198400   -0.079700
O      1.060100    1.930200    0.378100
C      1.024700    3.285800    0.222700
N     -0.099200    3.977900    0.342800
N      0.297600    5.253200    0.142800
C      1.627700    5.369500   -0.076900
C      2.149200    4.093800   -0.036800
H     -0.729600    1.816400   -0.627400
H     -0.388700    5.985800    0.196700
H      2.093500    6.327900   -0.242400
H      3.170700    3.784000   -0.174100
