20
gdb_11123
C      0.175600    1.502600   -0.133300
C      0.070900   -0.016800    0.032400
C     -1.366600   -0.516600    0.100800
C     -2.241400   -0.447200   -1.184000
C     -2.768700   -1.893000   -0.898200
C     -1.614400   -2.049400    0.147400
C     -4.130500   -1.898800   -0.263100
O     -5.065000   -2.565300   -0.628800
H      1.219300    1.825500   -0.192500
H     -0.327900    1.838700   -1.046300
H     -0.287800    2.025300    0.710900
H      0.581400   -0.515600   -0.802900
H      0.601900   -0.326300    0.942500
H     -1.882300   -0.023800    0.933700
H     -2.989500    0.347600   -1.248100
H     -1.637800   -0.425900   -2.096000
H     -2.772600   -2.591100   -1.736800
H     -0.780600   -2.618100   -0.273800
H     -1.877300   -2.489200    1.113600
H     -4.230000   -1.212700    0.613600
