18
gdb_6384
C      0.263000    0.789300    0.886000
C      0.038200   -0.001000   -0.385800
O      0.845500   -0.033200   -1.284900
C     -1.253900   -0.815800   -0.477000
C     -1.044800   -2.249400    0.038500
O     -0.758000   -2.287600    1.442900
C     -2.237300   -3.163500   -0.251100
O     -2.018400   -4.457300    0.262200
H      1.223400    1.304200    0.845500
H     -0.543500    1.517000    1.033400
H      0.239400    0.100400    1.737600
H     -2.067900   -0.341500    0.086200
H     -1.541900   -0.860200   -1.531700
H     -0.154200   -2.676400   -0.434700
H     -1.508700   -1.893500    1.905000
H     -3.151100   -2.705500    0.174300
H     -2.392300   -3.256500   -1.331300
H     -1.592700   -4.330100    1.120000
