19
gdb_15840
C      0.264400    1.324900   -0.081200
O      0.112900   -0.074300    0.008400
C      0.611900   -0.621200    1.215100
C      0.503000   -2.140800    1.085600
O      1.157100   -2.564100   -0.099200
C      1.135100   -2.841600    2.271100
C      1.663900   -4.217700    2.139700
N      2.587100   -3.073500    2.290300
H      1.321600    1.623500   -0.013800
H     -0.132900    1.635600   -1.050400
H     -0.292100    1.842400    0.714400
H      1.664500   -0.331400    1.362700
H      0.032400   -0.261200    2.079900
H     -0.567900   -2.401800    1.041900
H      0.935400   -1.903800   -0.767700
H      0.721300   -2.533300    3.230000
H      1.627500   -4.893700    2.989300
H      1.594100   -4.688900    1.164700
H      2.941300   -2.845400    1.362300
