12
gdb_21904
O     -0.066500    1.291500   -0.332700
C      0.011700   -0.016300   -0.019500
N      1.178800   -0.534700    0.134800
O      1.225600   -1.898600    0.460400
C      0.093700   -2.677500    0.615700
N      0.188600   -3.910100    0.911400
C     -1.189800   -2.021400    0.425500
C     -1.244000   -0.720100    0.114500
H      0.839200    1.630000   -0.389200
H      1.168300   -4.185200    1.002800
H     -2.067500   -2.642700    0.550000
H     -2.167500   -0.176100   -0.039400
