16
gdb_19852
C     -0.034000    1.469400    0.030600
C      1.463200    1.936300    0.098500
C      2.175700    0.801200   -0.648500
C      3.384700   -0.085900   -0.227900
O      3.128000   -0.673600    1.045300
C      2.502300   -1.276100   -0.115600
C      1.295400   -0.396000   -0.343500
C      0.067600   -0.059000    0.030900
H     -0.620900    1.835300    0.880100
H     -0.529300    1.849500   -0.874600
H      1.617700    2.933400   -0.322800
H      1.783300    1.946200    1.145400
H      2.242200    0.983300   -1.730300
H      4.420100   -0.015400   -0.541700
H      2.690100   -2.328800   -0.283700
H     -0.733400   -0.706700    0.366900
