15
gdb_19777
O      0.012400    0.007100   -0.036400
C     -0.014100    1.212400    0.005300
C     -1.254500    2.069600   -0.014900
C     -1.451500    3.165600    1.025400
C     -0.816700    3.500000   -0.288500
C      0.711500    3.499500   -0.329200
N      1.337400    3.129300    0.950600
C      1.204300    2.111800   -0.129600
H     -2.135900    1.620100   -0.455900
H     -2.480900    3.471200    1.176100
H     -0.827100    3.168800    1.908400
H     -1.339700    4.119200   -1.006800
H      1.218400    4.197800   -0.985200
H      2.303800    3.447800    0.965600
H      2.095800    1.697500   -0.586300
