16
gdb_14190
O      0.070800    1.320100    0.119700
C      0.063600   -0.055900   -0.025400
C      0.636600   -0.930500   -1.160000
C      0.096300   -1.930900   -0.112700
C      0.529500   -1.025700    1.095000
C     -0.865700   -1.101700    1.756300
C     -1.140600   -1.059500    0.238800
O     -2.340500   -1.145800   -0.444900
H     -0.363900    1.705800   -0.648800
H      0.113600   -0.904100   -2.120700
H      1.721500   -0.904000   -1.300700
H      0.121100   -3.018000   -0.124200
H      1.511800   -1.027400    1.561400
H     -1.113900   -2.032700    2.275000
H     -1.173200   -0.229900    2.341600
H     -2.921000   -0.447300   -0.123100
