15
gdb_1629
C      0.050800    1.553700    0.019900
C      0.022900    0.031200    0.064700
O      0.644600   -0.494000    1.232400
C     -1.424500   -0.514700   -0.045200
O     -2.080200   -0.004300   -1.171000
C     -1.417800   -2.030800   -0.085900
O     -1.961300   -2.631500   -0.983600
H      1.082100    1.914100    0.064600
H     -0.420000    1.916300   -0.896000
H     -0.502100    1.973900    0.870600
H      0.599900   -0.367900   -0.778100
H      0.343500    0.025000    1.986400
H     -1.951000   -0.222800    0.885000
H     -2.388000   -0.783200   -1.663900
H     -0.887200   -2.544800    0.734600
