16
gdb_17300
O     -0.042500    1.424900    0.002000
C      0.001900    0.029900   -0.020100
C      0.429300   -0.716900   -1.319300
C     -0.909100   -1.523300   -1.284300
C     -1.343000   -0.755100   -0.000300
C     -0.913300   -1.370500    1.354600
O      0.331300   -2.061500    1.157400
C      0.367900   -0.644800    1.340300
H      0.863500    1.755400    0.014000
H      0.496300   -0.026200   -2.163600
H      1.344400   -1.308500   -1.254400
H     -1.559400   -1.337500   -2.141200
H     -0.790000   -2.598800   -1.149600
H     -2.288200   -0.213800    0.006700
H     -1.531100   -1.712100    2.177600
H      0.987500   -0.253600    2.141900
