15
gdb_18907
O     -0.146100    1.448000   -0.018800
C     -0.025100    0.080900    0.010200
C     -1.220500   -0.892400    0.092700
C     -0.420700   -1.854600   -0.702300
C      0.692400   -0.854800   -1.069100
C      1.839400   -1.129700   -0.065200
C      0.771100   -0.843700    1.001700
N     -0.339300   -1.872100    0.801000
H      0.725200    1.841800   -0.141900
H     -2.279800   -0.784500    0.290000
H     -0.716300   -2.769200   -1.201800
H      0.842000   -0.580200   -2.111700
H      2.314600   -2.113900   -0.069600
H      2.604000   -0.345800   -0.089600
H      0.984500   -0.648000    2.051700
