16
gdb_16650
C     -0.047200    1.385700    0.008500
N     -0.016600   -0.056700    0.009900
C     -1.208200   -0.876200    0.057900
C     -0.625400   -2.282100   -0.017200
C      0.227900   -2.635100   -1.173700
N      0.842700   -2.186400    0.099600
C      1.155900   -0.775400    0.051800
O      2.273100   -0.321700    0.052600
H      0.986500    1.735400   -0.003500
H     -0.570100    1.771900   -0.875200
H     -0.549000    1.775700    0.903600
H     -1.760300   -0.731100    0.997900
H     -1.895200   -0.645100   -0.767800
H     -1.100500   -3.064000    0.565000
H      0.407700   -3.677400   -1.416500
H      0.266700   -1.950300   -2.017400
