17
gdb_16861
O      0.019900   -0.078600    0.070800
C     -0.007600    1.135400   -0.006400
C     -1.304800    1.947300   -0.018500
C     -1.249600    3.156100   -0.947600
C     -1.189100    4.561500   -0.406700
C      0.055700    3.915400   -0.960000
C      1.118500    3.356800   -0.022300
N      1.125200    1.898500   -0.077300
H     -2.109400    1.261300   -0.286800
H     -1.495100    2.265700    1.015200
H     -1.743200    3.020900   -1.904100
H     -1.652300    5.355500   -0.981700
H     -1.255500    4.695400    0.669500
H      0.420000    4.267400   -1.919000
H      2.112300    3.710400   -0.309000
H      0.944400    3.710200    1.004800
H      1.993100    1.395600    0.026800
