20
gdb_5938
C     -0.057300    1.569700    0.081300
C     -0.000700    0.033300    0.065700
C      0.711200   -0.488400    1.324500
C     -1.427100   -0.537100    0.003000
O     -2.145900   -0.112400    1.150700
C      0.732600   -0.465400   -1.213100
C      2.115400   -0.018900   -1.328600
C      3.255800    0.351000   -1.421000
H      0.949900    1.993700    0.115300
H     -0.554500    1.954500   -0.816700
H     -0.616900    1.919700    0.951400
H      0.168400   -0.182600    2.221500
H      0.766300   -1.583300    1.320500
H      1.732100   -0.101100    1.380400
H     -1.919000   -0.187900   -0.920000
H     -1.377600   -1.637700   -0.044400
H     -3.034600   -0.475200    1.101900
H      0.711200   -1.563600   -1.233800
H      0.176200   -0.130700   -2.099300
H      4.263400    0.673900   -1.508800
