15
gdb_2646
C     -0.009400    1.489100    0.017100
C      0.003200    0.034600   -0.050900
C      0.028000   -1.167800   -0.110800
C      0.018000   -2.624000   -0.173400
C     -1.380600   -3.218200    0.144300
C     -1.391500   -4.673700    0.081900
C     -1.367000   -5.874000    0.022200
H      0.694700    1.859400    0.770600
H      0.268800    1.935900   -0.943800
H     -1.003600    1.866300    0.280900
H      0.327800   -2.964900   -1.168300
H      0.746300   -3.040900    0.532200
H     -1.692300   -2.882300    1.139900
H     -2.111000   -2.806200   -0.561500
H     -1.361900   -6.934500   -0.026500
