12
gdb_21413
N     -0.103300    1.249300   -0.405400
C      0.000100    0.036900   -0.051500
N     -1.117600   -0.682300    0.341400
C     -1.041400   -1.987700    0.728000
N      0.013700   -2.711800    0.785300
O      1.218100   -2.063200    0.400500
C      1.269200   -0.758700   -0.005500
N      2.357200   -0.210300   -0.341700
H      0.823400    1.597100   -0.655300
H     -2.001100   -0.194300    0.329500
H     -1.966200   -2.472900    1.019500
H      3.139400   -0.861600   -0.264300
