13
gdb_2059
O     -0.013800   -0.059800    0.005900
C     -0.004600    1.156900    0.015100
N     -1.136000    1.923300   -0.076100
C     -1.245500    3.372900    0.068600
C      0.111500    4.010900   -0.021800
C      1.218600    3.269900    0.001600
N      1.176400    1.884000    0.097300
H     -1.980800    1.374900   -0.085900
H     -1.905200    3.762200   -0.720800
H     -1.731300    3.633000    1.025300
H      0.171300    5.088900   -0.085900
H      2.213000    3.697700   -0.046800
H      2.014800    1.330000    0.064800
