13
gdb_380
N      0.079600    1.491800   -0.015700
C      0.011800    0.030900   -0.003800
C      0.782600   -0.489600    1.238900
N      0.310800    0.042200    2.518200
C      0.761000   -1.957400    1.258100
N      0.714600   -3.111600    1.240800
H      0.960300    1.804500   -0.412700
H     -0.654000    1.877700   -0.598900
H     -1.037300   -0.268600    0.091900
H      0.408900   -0.453200   -0.909300
H      1.833600   -0.186300    1.125500
H      0.173700    1.041400    2.374800
H     -0.606200   -0.345800    2.726000
