16
gdb_16399
N     -0.088800    1.266700   -0.252300
C     -0.046100    0.039100    0.045200
O      1.115500   -0.602700    0.366900
C      1.058400   -1.982900    0.778700
C     -0.335800   -2.564100    0.609900
C     -0.932800   -2.142300   -0.752700
C     -1.266700   -0.841500    0.024200
N     -1.258100   -1.612700    1.327700
H      0.846000    1.677200   -0.191800
H      1.792000   -2.527100    0.173700
H      1.356700   -2.028000    1.831500
H     -0.364700   -3.609300    0.927500
H     -0.282200   -2.086100   -1.630700
H     -1.837100   -2.706700   -0.992300
H     -2.155300   -0.257000   -0.205000
H     -2.168200   -2.064000    1.411300
