15
gdb_1713
C     -0.120000    1.728200    0.140700
C      0.057600    0.225800   -0.001400
C      0.703900   -0.330100   -1.285900
C      1.764300   -0.913700   -0.332800
O      1.150400   -0.280700    0.818800
C     -1.201400   -0.510300    0.440000
O     -1.942500   -1.116900   -0.288300
H      0.822700    2.236500   -0.080100
H     -0.889500    2.091000   -0.549100
H     -0.417900    1.988900    1.161900
H      0.082700   -1.044200   -1.826400
H      1.072000    0.435600   -1.970100
H      1.765500   -2.005900   -0.240700
H      2.792100   -0.565200   -0.477900
H     -1.366100   -0.459100    1.540400
