20
gdb_18080
C     -0.000000    1.527500   -0.071500
C     -0.092300    0.001700   -0.150400
C     -1.475000   -0.536600    0.243500
C     -1.553100   -2.046100    0.159900
C     -2.832400   -2.869000    0.151000
C     -3.880800   -2.205600   -0.735300
O     -2.934900   -2.074400   -1.831000
C     -1.950100   -2.792500   -1.078300
H      0.995100    1.883300   -0.356200
H     -0.727100    2.002000   -0.739900
H     -0.203500    1.885500    0.944100
H      0.141800   -0.330600   -1.169500
H      0.671400   -0.446400    0.499500
H     -1.718600   -0.210100    1.263600
H     -2.228800   -0.097000   -0.418100
H     -0.767500   -2.567200    0.707200
H     -3.015300   -3.683900    0.838600
H     -4.696100   -2.881000   -1.018200
H     -4.294700   -1.240800   -0.419500
H     -1.353100   -3.526800   -1.607800
