19
gdb_11539
C     -0.286700    0.928100   -1.346700
C      0.150600    0.200100   -0.062100
C      1.188800   -0.878400   -0.317200
O      2.322800   -0.800500    0.097400
C      0.767100   -2.095600   -1.156300
N      1.103400   -1.839400   -2.556000
C      2.494200   -2.095100   -2.927700
C      1.410700   -3.016500   -3.366800
H      0.557000    1.460400   -1.795100
H     -0.669500    0.231000   -2.095600
H     -1.067500    1.658800   -1.117500
H      0.576200    0.905000    0.657000
H     -0.725600   -0.272300    0.402100
H      1.292000   -2.974000   -0.745800
H     -0.312700   -2.268400   -1.090700
H      2.928800   -1.386400   -3.626100
H      3.167900   -2.438700   -2.147000
H      1.357700   -3.991500   -2.885500
H      1.042100   -2.991900   -4.388100
