9
gdb_21980
O     -0.089700    0.004900    0.003800
N     -0.037600    1.221200    0.007100
O      0.975300    1.913900    0.002800
C     -1.279500    1.949500    0.017000
C     -1.463600    3.300400    0.022000
O     -2.750800    3.545700    0.031000
N     -3.412100    2.215500    0.030800
N     -2.511100    1.358100    0.023000
H     -0.766000    4.121900    0.020100
