18
gdb_17080
C      0.326400    1.451500    0.076500
C      1.172500    0.202600   -0.086300
C     -0.334200    0.124200   -0.087300
O     -1.009400   -0.377800    1.028200
C     -1.178200   -1.770400    1.012300
C     -0.076100   -2.669900    1.625400
O     -1.035700   -3.274400    2.517600
C     -2.042700   -2.302400    2.164600
H      0.283400    1.890500    1.066600
H      0.272100    2.161800   -0.740500
H      1.701300    0.044300   -1.019900
H      1.687900   -0.157200    0.796500
H     -0.829200   -0.094200   -1.034400
H     -1.505400   -2.110500    0.021000
H      0.403900   -3.408700    0.974400
H      0.689700   -2.098700    2.166500
H     -2.194300   -1.551000    2.950600
H     -2.999900   -2.769500    1.910200
