22
gdb_10220
C      0.577600    1.121300    0.320800
C      0.121500   -0.331000    0.167600
C     -1.401600   -0.495500    0.109100
C     -1.808800   -1.961100   -0.077800
C     -3.315200   -2.170500   -0.235400
O     -3.658900   -3.532400   -0.447400
O     -1.973600   -0.004700    1.326500
C     -2.869800    1.073700    1.181200
H      1.668500    1.187300    0.375000
H      0.250800    1.734900   -0.526700
H      0.168500    1.559700    1.235200
H      0.552800   -0.767400   -0.741800
H      0.495400   -0.926500    1.009900
H     -1.790100    0.095800   -0.735500
H     -1.301600   -2.374200   -0.957500
H     -1.454600   -2.527700    0.794500
H     -3.840900   -1.756400    0.636800
H     -3.678700   -1.636800   -1.121400
H     -3.416100   -4.020400    0.345800
H     -2.390400    1.955900    0.732100
H     -3.745100    0.808400    0.569000
H     -3.217000    1.339800    2.183700
