11
gdb_23639
F      0.009300    0.097400    0.003300
C     -0.043800    1.410100    0.011000
N     -1.210900    1.947900    0.030100
C     -1.274200    3.335000    0.038600
N     -2.307300    4.072800    0.056900
N     -0.009900    3.980600    0.024900
C      1.135100    3.288000    0.005400
N      1.194200    1.987500   -0.002600
H     -3.139300    3.485600    0.065000
H     -0.024600    4.990900    0.030600
H      2.055600    3.866300   -0.004000
