17
gdb_11362
C     -0.061600    1.538900   -0.064600
C      0.031300    0.017400    0.048200
C      0.760600   -0.447800    1.272700
N      1.275900    0.302900    2.170100
C      1.878200   -0.590700    3.166200
C      1.621400   -2.017300    2.687200
N      1.983400   -3.086600    3.269000
N      0.918200   -1.818800    1.500200
H      0.933700    1.987700   -0.095800
H     -0.602100    1.819900   -0.972600
H     -0.581800    1.961300    0.798000
H     -0.972100   -0.430800    0.054700
H      0.534900   -0.404500   -0.832800
H      2.951900   -0.396900    3.262500
H      1.436400   -0.423700    4.154500
H      1.693900   -3.919000    2.752700
H      0.580000   -2.553500    0.901700
