15
gdb_2355
N     -0.090500    1.340000    0.062500
C     -0.001000   -0.046600    0.112900
O      1.054000   -0.650700    0.044800
N     -1.214800   -0.682500    0.216500
C     -2.529900   -0.255300   -0.293200
C     -2.889700   -1.751700   -0.504300
C     -1.420600   -2.095700   -0.126700
H      0.797200    1.790900    0.225200
H     -0.867800    1.775300    0.536200
H     -3.143700    0.288800    0.434200
H     -2.466800    0.336600   -1.214200
H     -3.630300   -2.130000    0.201300
H     -3.191100   -2.021300   -1.516500
H     -0.788900   -2.425000   -0.958100
H     -1.282400   -2.783800    0.712200
