18
gdb_14861
C      0.025700    1.537000   -0.141400
C      0.031500    0.012300    0.015300
C     -1.379000   -0.562800    0.086900
C     -2.232100   -0.563000   -1.203700
O     -2.473200   -1.982000   -1.106000
C     -1.601300   -2.112000    0.016300
C     -0.362600   -2.939500   -0.253800
O     -0.029600   -3.354400   -1.331700
H      1.044500    1.930600   -0.200000
H     -0.499700    1.841000   -1.053200
H     -0.472400    2.020900    0.705900
H      0.570900   -0.442600   -0.824700
H      0.585200   -0.258700    0.923200
H     -1.916400   -0.129500    0.935100
H     -3.163700    0.012600   -1.178000
H     -1.676200   -0.310400   -2.116100
H     -2.108600   -2.540200    0.894700
H      0.245800   -3.132300    0.662800
