14
gdb_1066
C      0.056300    1.393400    0.109600
N     -0.183600   -0.016200   -0.121500
C      0.537700   -0.644000   -1.125900
C      1.184300   -0.095800   -2.211800
N      1.682300   -1.189200   -2.910000
C      1.333000   -2.302700   -2.223100
N      0.642300   -2.015300   -1.140500
H      1.117300    1.639200    0.283700
H     -0.282400    1.975900   -0.755500
H     -0.525600    1.722200    0.973800
H     -0.218100   -0.583100    0.713500
H      1.328900    0.913800   -2.552200
H      2.213000   -1.153200   -3.762900
H      1.605400   -3.295100   -2.549500
