11
gdb_3832
N     -0.090400    1.327200    0.001000
C      0.005600    0.044500    0.007300
C      1.222700   -0.764900    0.003200
N      1.230400   -2.062000    0.010000
N      0.040900   -2.666300    0.021600
N     -1.168100   -2.089200    0.027200
C     -1.190300   -0.793600    0.020500
H      0.838400    1.755700   -0.007900
H      2.197900   -0.284400   -0.006500
H      0.052700   -3.672200    0.026700
H     -2.167000   -0.320900    0.024900
