22
gdb_16390
C     -0.145300    1.545600   -0.095500
C      0.069500    0.032700   -0.036200
C      0.960500   -0.537100   -1.165500
C      1.194800   -1.997300   -0.683700
C      1.990000   -1.280300    0.444500
C      2.401600   -0.254600   -0.650900
C      0.865300   -0.541700    1.208200
C      1.356200    0.461700    2.252500
H      0.795800    2.103600   -0.102200
H     -0.691900    1.814300   -1.006200
H     -0.733900    1.902200    0.756000
H     -0.917200   -0.443500   -0.082200
H      0.660100   -0.309000   -2.189900
H      0.320700   -2.592600   -0.399500
H      1.837400   -2.568400   -1.358300
H      2.731800   -1.804600    1.049900
H      3.166400   -0.651000   -1.323000
H      2.669100    0.762400   -0.352400
H      0.239000   -1.278100    1.725900
H      2.030600    1.212300    1.829500
H      0.522800    0.994500    2.721700
H      1.901800   -0.057400    3.048300
