14
gdb_3421
O      0.044500   -0.004700   -0.034200
C     -0.000000    1.198800   -0.059500
C     -1.265100    2.068300   -0.114300
C     -0.833400    3.371500   -0.824900
C      0.672200    3.452900   -0.597400
N      1.030400    3.274200    0.812100
C      1.179200    2.127400   -0.138600
H     -2.073100    1.532000   -0.614200
H     -1.580300    2.265300    0.915400
H     -1.031700    3.305900   -1.900100
H     -1.350600    4.256300   -0.442900
H      1.282700    4.096400   -1.222600
H      1.959500    3.655600    0.977400
H      2.163900    1.738100   -0.366500
