15
gdb_17041
O     -0.057300    1.356300   -0.333000
C     -0.007200   -0.012900   -0.144000
C      0.082800   -0.559400    1.317300
N     -1.327800   -0.025600    1.487500
C     -1.336200   -0.782600    0.159300
C     -0.509000   -1.923600    0.803000
C      0.320600   -2.888300   -0.001700
O      0.443100   -2.874200   -1.201700
H     -0.665000    1.685000    0.346600
H      0.651400   -0.451300   -0.888700
H      0.853300   -0.405700    2.074300
H     -1.826700   -0.558800    2.204800
H     -2.236300   -0.864600   -0.450000
H     -1.025600   -2.462600    1.606100
H      0.840200   -3.659300    0.613600
