15
gdb_16640
O     -0.103100    1.492500   -0.068900
C     -0.044600    0.090300   -0.011300
C     -1.381600   -0.613300   -0.054900
C     -2.104900   -0.603700   -1.348900
N     -1.319100   -1.789600   -0.976100
C      0.012500   -1.806300   -1.601700
C      0.680800   -0.483800   -1.240800
O      1.560000    0.104400   -1.816600
H      0.677200    1.766700   -0.574100
H      0.509800   -0.245200    0.884900
H     -1.921000   -0.773700    0.872300
H     -3.178800   -0.758500   -1.365400
H     -1.729700    0.048900   -2.135900
H      0.596300   -2.639500   -1.189200
H     -0.044000   -1.942700   -2.685100
