18
gdb_14279
C     -0.382000    1.422500   -0.099300
C     -0.023300   -0.044500    0.020100
C      1.334500   -0.618600   -0.321400
C      2.522300    0.316700   -0.425400
C      2.629900    1.019500    0.938700
O      3.322400    1.973100    1.180400
C      1.705300    0.309700    1.942400
C      0.836100   -0.622900    1.123200
H      0.434100    2.092000    0.184200
H     -0.660200    1.670000   -1.129600
H     -1.236800    1.665100    0.541400
H     -0.843100   -0.700100   -0.264700
H      1.365200   -1.541300   -0.889600
H      3.451000   -0.244600   -0.590100
H      2.463800    1.065600   -1.221500
H      2.335800   -0.254100    2.641800
H      1.166900    1.054500    2.537000
H      0.511500   -1.548600    1.584500
