12
gdb_21366
N     -0.025100    1.342900    0.010000
C      1.298800    1.781900   -0.000500
C      2.123200    0.697400   -0.014600
N      1.287300   -0.407200   -0.012500
N      1.362200   -1.766900   -0.020800
C      0.065800   -2.083300   -0.009900
N     -0.837500   -1.056900    0.004700
C     -0.014800   -0.021000    0.002400
H     -0.845000    1.921800    0.021300
H      1.541100    2.830300    0.002900
H      3.195700    0.625500   -0.025500
H     -0.244600   -3.118000   -0.012600
