14
gdb_8833
O      0.146900    1.330100    0.043400
C      0.027500   -0.059400   -0.036300
C     -1.414600   -0.507300    0.056900
O     -2.307500    0.300300    0.195700
C     -1.764500   -2.009200   -0.008000
O     -3.127900   -2.197700    0.257000
C     -1.357000   -2.542400   -1.314500
C     -1.025000   -2.969900   -2.387200
H     -0.751100    1.670600    0.167400
H      0.445900   -0.444400   -0.978000
H      0.585000   -0.558000    0.775300
H     -1.175100   -2.514700    0.773900
H     -3.527100   -1.314200    0.209600
H     -0.737400   -3.358200   -3.333500
