13
gdb_19580
O      0.003900   -0.008200    0.003600
C     -0.014300    1.173200   -0.059100
C     -1.058000    2.328300    0.031800
N     -0.026500    2.919100    0.960300
C      0.996900    2.358600    0.004500
C      0.675700    3.049000   -1.343000
O     -0.058900    2.214700   -2.260000
C     -0.793200    3.027400   -1.323600
H     -2.076500    2.220200    0.397900
H     -0.041700    3.940500    0.955100
H      2.027500    2.280700    0.343400
H      1.300500    3.817100   -1.785700
H     -1.451900    3.776600   -1.749200
