14
gdb_6620
C     -0.032100    1.466700   -0.055900
C     -0.008000    0.016800   -0.055700
C      0.015400   -1.194200   -0.055900
C      0.042900   -2.549500   -0.056400
C      0.064900   -3.763800   -0.056400
C      0.103700   -5.212200   -0.058000
C     -1.235600   -5.899700    0.113000
O      1.147300   -5.817600   -0.188800
H      0.578000    1.867700    0.761200
H      0.367500    1.864000   -0.995600
H     -1.051700    1.848500    0.065500
H     -1.697600   -5.594700    1.058200
H     -1.918600   -5.598700   -0.688600
H     -1.093800   -6.981400    0.097500
