17
gdb_19520
O      0.356000    0.965500    1.053500
C      0.109500    0.068600   -0.027000
C     -1.277000   -0.531100    0.023800
C     -1.584400   -1.982400   -0.212600
C     -0.467700   -2.961700   -0.105100
C      0.034200   -2.952700    1.130700
C     -0.715600   -1.967200    1.998900
N     -1.762300   -1.373800    1.128700
H     -0.358300    1.611000    1.071000
H      0.236200    0.575300   -0.997000
H      0.882200   -0.697900    0.046200
H     -2.051400    0.170300   -0.293600
H     -2.479800   -2.250800   -0.769300
H     -0.136200   -3.577700   -0.931700
H      0.873600   -3.539700    1.485600
H     -1.202900   -2.461000    2.849900
H     -0.073100   -1.177900    2.405600
