17
gdb_15896
C     -0.253000    1.385700   -0.155200
O      0.302100    0.105900    0.108800
C      0.780400   -0.525300   -1.039200
C      1.264700   -1.993600   -0.805300
C      1.059200   -2.561900    0.589900
N      0.264300   -2.391900   -1.810700
C     -0.279900   -1.148300   -2.002700
O     -1.208900   -0.744100   -2.652500
H      0.503700    2.066300   -0.574900
H     -1.095000    1.321100   -0.853800
H     -0.598100    1.783400    0.801500
H      1.511500    0.101700   -1.572400
H      2.291400   -2.167300   -1.147400
H      0.049800   -2.353700    0.950300
H      1.221000   -3.644900    0.590800
H      1.771000   -2.112100    1.288400
H      0.001900   -3.297500   -2.172900
