24
gdb_8713
C     -1.667200   -0.565000   -0.556100
C     -0.196100   -0.220000   -0.294800
C      0.794600   -0.575600   -1.430500
O      0.424700    0.105000   -2.639100
C      2.209800   -0.060100   -1.097600
C      2.332800    1.455900   -0.905900
C      0.815000   -2.104500   -1.675400
C      1.726400   -2.574500   -2.814200
H     -2.038200   -0.082700   -1.468200
H     -1.841000   -1.641200   -0.646400
H     -2.292100   -0.203700    0.266200
H     -0.127100    0.856300   -0.112400
H      0.136600   -0.716600    0.625500
H     -0.439000   -0.220700   -2.911400
H      2.566500   -0.584700   -0.202600
H      2.870900   -0.355500   -1.917700
H      1.895400    1.985200   -1.756000
H      1.836700    1.804800    0.004600
H      3.386300    1.742800   -0.830200
H      1.089600   -2.607900   -0.739600
H     -0.210100   -2.427500   -1.897700
H      1.539400   -1.990800   -3.719900
H      2.786200   -2.474700   -2.563800
H      1.543200   -3.629100   -3.041700
