11
gdb_3879
N      0.036100    1.382300    0.160600
C     -0.001000    0.003400    0.046300
N     -1.078100   -0.720800    0.036500
N     -0.593600   -2.024000    0.019700
C      0.774800   -2.120200    0.008200
O      1.498200   -3.091300    0.000700
N      1.140700   -0.758700    0.003600
H      0.628600    1.832900   -0.526800
H     -0.900200    1.766800    0.126900
H     -1.232600   -2.797500    0.045700
H      2.089000   -0.446500    0.119800
