20
gdb_3014
C     -0.078200    1.576700   -0.018200
C     -0.053400    0.046000    0.002100
C     -1.429800   -0.637500    0.004400
C     -1.277400   -2.158800   -0.065900
N     -2.167100   -0.291300    1.224100
C     -3.050500    0.869300    1.173100
C     -3.609600   -0.508200    1.197700
H      0.937900    1.977400   -0.090300
H     -0.643700    1.957100   -0.876700
H     -0.530100    1.984000    0.889900
H      0.497100   -0.317300   -0.874800
H      0.498600   -0.301000    0.884100
H     -1.989000   -0.299700   -0.891100
H     -2.252500   -2.654600   -0.083900
H     -0.731400   -2.451900   -0.967700
H     -0.728100   -2.526500    0.806800
H     -3.068700    1.493500    2.062300
H     -3.125500    1.414200    0.233600
H     -4.057000   -0.873800    0.274000
H     -4.046900   -0.915800    2.104800
