18
gdb_4486
C      0.059800    1.512500    0.072100
C      0.036800    0.023600   -0.037100
C      0.023000   -0.801500   -1.140500
C      0.002600   -2.158100   -0.694100
C     -0.017200   -3.392400   -1.543100
C      0.004600   -2.117700    0.685800
N     -0.009700   -3.110100    1.697600
N      0.025400   -0.792300    1.066200
H      0.949500    1.878000    0.601000
H      0.065300    1.956500   -0.926200
H     -0.816800    1.905100    0.603400
H      0.027200   -0.465600   -2.167900
H      0.862000   -3.457100   -2.195800
H     -0.030400   -4.294100   -0.922000
H     -0.899100   -3.430000   -2.194100
H      0.797200   -3.722700    1.638700
H     -0.835200   -3.697600    1.640200
H      0.030700   -0.500700    2.028800
