14
gdb_14314
N     -0.096100    1.287700    0.099000
C     -0.049700    0.034400   -0.051900
O      1.144000   -0.679600   -0.270400
C      0.779700   -2.017000   -0.535800
C      0.910000   -3.290700    0.391000
N     -0.591900   -3.464000    0.315300
C     -0.652800   -2.124200   -0.197900
C     -1.171900   -0.923700    0.072900
H      0.839600    1.692300    0.052100
H      1.060100   -2.279600   -1.562700
H      1.504200   -4.117500   -0.005100
H      1.202000   -3.058000    1.416800
H     -0.897400   -4.203600   -0.308800
H     -2.126700   -0.635700    0.483500
