11
gdb_2963
O     -0.129900    0.018000   -0.237200
C     -0.128300    1.189100    0.053400
C      1.102100    2.002200   -0.015000
N      2.073300    2.621300   -0.108800
N     -1.199100    1.898700    0.546300
C     -1.804900    3.076500   -0.051500
C     -2.550700    1.775600    0.052900
H     -2.029800    3.887000    0.634400
H     -1.449300    3.380900   -1.032000
H     -2.691400    1.188100   -0.849800
H     -3.318400    1.658600    0.811400
