15
gdb_2350
C      0.322800    1.451300   -0.032000
C     -0.068400   -0.007300    0.118000
O     -0.312300   -0.501600    1.194500
C     -0.108000   -0.815900   -1.167500
C      1.263400   -1.414300   -1.604900
O      0.769600   -2.753700   -1.473100
C     -0.533200   -2.289800   -1.049900
H      1.242200    1.550200   -0.620000
H     -0.460900    1.989100   -0.578700
H      0.457200    1.906300    0.949800
H     -0.599200   -0.244500   -1.958700
H      1.570000   -1.179300   -2.631500
H      2.102400   -1.212000   -0.925800
H     -0.771000   -2.599300   -0.027700
H     -1.323700   -2.612800   -1.736500
