19
gdb_6772
C      0.012300    1.554400   -0.033000
C      0.029600    0.023600   -0.028400
C      0.710000   -0.566900   -1.268400
C      0.720200   -2.086600   -1.250700
O      1.375900   -2.533600   -2.449000
C      1.464600   -3.878300   -2.588700
N      2.053900   -4.183000   -3.785800
O      1.054300   -4.685000   -1.787500
H      1.029000    1.961500   -0.063300
H     -0.524200    1.941300   -0.906300
H     -0.478400    1.949500    0.861600
H      0.542400   -0.334500    0.873900
H     -0.998900   -0.354400    0.037400
H      0.197600   -0.223800   -2.175800
H      1.742900   -0.203200   -1.337200
H      1.256100   -2.477900   -0.379100
H     -0.294500   -2.497900   -1.221000
H      2.563100   -3.462800   -4.269200
H      2.367100   -5.132400   -3.892900
