13
gdb_1771
N     -0.217700    1.387000    0.007700
C     -0.048900   -0.047400   -0.010100
C     -0.499700   -0.780200    1.254700
C     -1.382600   -0.811000    0.045600
O     -2.544100   -0.069300   -0.017600
C      1.047900   -0.590500   -0.770900
N      1.926700   -1.003900   -1.401600
H      0.483400    1.836000    0.588500
H     -0.133400    1.770100   -0.929100
H      0.046200   -1.674700    1.530600
H     -0.799600   -0.140800    2.077800
H     -1.452400   -1.735100   -0.517400
H     -2.280800    0.850000    0.151400
