13
gdb_19632
C     -0.032300   -1.179100    0.002100
C     -0.018000    0.025700    0.008000
C      0.018800    1.434100    0.011600
C     -0.874100    2.450200    0.777800
C      0.307100    3.448900    0.772700
C      1.161300    2.492200    0.025900
N      0.324700    3.484300   -0.733700
C     -0.818700    2.474700   -0.719400
H     -0.048600   -2.240600   -0.002500
H     -1.677200    2.229700    1.465600
H      0.550200    4.313000    1.378200
H      2.234000    2.412100   -0.099300
H     -1.567800    2.364000   -1.492800
