17
gdb_11594
C     -0.213400    1.438200    0.158500
C     -0.043500   -0.037400   -0.167500
O      0.790800   -0.433100   -0.961700
N     -0.888800   -0.880000    0.500200
C     -0.888600   -2.315900    0.293700
C     -2.230100   -2.798800   -0.200200
C     -2.822900   -4.054200    0.271200
O     -3.281800   -2.798300    0.775500
H      0.728600    1.818700    0.562500
H     -0.412600    1.981000   -0.769100
H     -1.015300    1.643700    0.872200
H     -1.581800   -0.499900    1.123900
H     -0.105600   -2.521900   -0.440900
H     -0.637600   -2.836600    1.226300
H     -2.533000   -2.414900   -1.175100
H     -3.526600   -4.590300   -0.363300
H     -2.277200   -4.672100    0.983400
