17
gdb_1818
C     -0.095900    1.474800   -0.110900
C      0.041100   -0.047300    0.058900
C      0.751000   -0.402000    1.365500
O     -1.247600   -0.648200    0.112700
C      0.808000   -0.617700   -1.133600
C      0.583600   -1.982100   -1.616900
O      0.006800   -0.853700   -2.298500
H      0.881400    1.969300   -0.107300
H     -0.591000    1.709600   -1.058900
H     -0.697700    1.885700    0.704000
H      0.196300    0.008200    2.214200
H      0.809500   -1.486900    1.485900
H      1.764900    0.009300    1.386000
H     -1.587200   -0.622400   -0.792700
H      1.768800   -0.145400   -1.342200
H      1.368800   -2.497000   -2.166900
H     -0.131100   -2.613900   -1.096200
