19
gdb_16372
C     -0.342600    1.279300   -1.267900
C      0.238600   -0.051900   -0.834600
O      1.622300   -0.213800   -1.231200
C      2.040300   -0.583500    0.112100
C      3.218600    0.231500    0.602500
C      0.636600   -0.270200    0.627200
C      0.182800    0.452200    1.832600
N     -0.059900   -0.999200    1.671900
H      0.240200    2.109800   -0.860100
H     -0.336300    1.354900   -2.359800
H     -1.380800    1.377500   -0.930500
H     -0.372700   -0.879900   -1.228300
H      2.264400   -1.658400    0.164000
H      2.986500    1.300400    0.591400
H      3.486000   -0.061600    1.623600
H      4.089300    0.060200   -0.038100
H      0.888000    0.711000    2.617900
H     -0.654300    1.139100    1.733700
H     -1.027300   -1.169200    1.404200
