14
gdb_18659
O      0.068400   -0.014300    0.141700
C     -0.003700    1.187600    0.029500
C     -1.330900    1.931400   -0.081000
C     -1.307000    3.039900   -1.105200
C     -0.180100    3.645800   -1.479100
C      1.122200    3.288700   -0.861000
O      1.171300    3.318400    0.572000
C      1.228000    2.038600   -0.061300
H     -2.111900    1.196100   -0.290100
H     -1.553300    2.358600    0.908600
H     -2.260700    3.341900   -1.527700
H     -0.184800    4.436200   -2.222400
H      2.028200    3.655000   -1.339300
H      2.173000    1.505100    0.013000
