14
gdb_1428
C      0.200200    1.508500    0.238000
N      0.257700    0.067500    0.143400
C      0.590300   -0.535100   -0.909300
C      1.033500   -0.039400   -2.257400
O      0.612200   -1.924500   -0.925000
C     -0.129900   -2.623100   -0.010400
O     -0.033500   -3.807900    0.077400
H      0.865300    1.836800    1.044200
H      0.468600    2.055100   -0.675000
H     -0.814500    1.805000    0.526200
H      1.155500    1.042300   -2.283400
H      1.982800   -0.514100   -2.521200
H      0.303800   -0.335300   -3.017800
H     -0.794000   -1.976200    0.576200
