20
gdb_8109
C     -0.080400    1.590900    0.076400
C      0.086200    0.084200    0.096600
C      1.350000   -0.681400   -0.221600
C      2.600600   -0.045100    0.363900
O      3.005900    1.161300   -0.254700
C      1.928800   -0.006300    1.779500
C      0.712800   -0.738500    1.188300
C      0.013400   -1.877600    1.874500
H      0.821300    2.111300    0.398500
H     -0.300700    1.932900   -0.940800
H     -0.914600    1.898600    0.718100
H     -0.776800   -0.434200   -0.322200
H      1.363900   -1.441600   -0.995000
H      3.427600   -0.768200    0.364300
H      3.820800    1.453700    0.166200
H      2.473200   -0.600100    2.518900
H      1.742100    0.988400    2.195300
H     -0.576700   -1.525000    2.729800
H     -0.671900   -2.391600    1.192400
H      0.728200   -2.618200    2.252900
