17
gdb_6789
N     -0.184800    1.288200    0.122200
C      0.054000   -0.055500    0.033500
O      1.146500   -0.570300   -0.016100
O     -1.120400   -0.732800    0.045100
C     -0.996100   -2.162600    0.013800
C     -2.401500   -2.740800    0.023300
C     -2.395500   -4.264200   -0.005900
O     -3.746400   -4.697000    0.001800
H      0.591000    1.889800   -0.094500
H     -1.112400    1.627700   -0.067700
H     -0.439400   -2.456500   -0.882700
H     -0.413400   -2.492000    0.880900
H     -2.934600   -2.403200    0.918400
H     -2.960200   -2.370100   -0.842800
H     -1.867300   -4.619600   -0.905900
H     -1.846300   -4.653300    0.867200
H     -3.754000   -5.658400   -0.013100
