20
gdb_7183
C     -0.094400    1.512300   -0.086600
C     -0.019000    0.016900    0.173100
O     -1.303000   -0.537600   -0.054000
C     -1.380200   -1.954900    0.025100
C     -1.396800   -2.455200    1.471700
C     -2.659900   -2.350600   -0.725000
C     -2.598600   -2.028400   -2.202300
O     -2.967400   -2.771800   -3.076300
H      0.881400    1.977400    0.081900
H     -0.400700    1.709000   -1.117900
H     -0.822100    1.981000    0.581900
H      0.718300   -0.456500   -0.496300
H      0.313500   -0.171600    1.205400
H     -0.509000   -2.391700   -0.493300
H     -1.465100   -3.547100    1.499300
H     -0.486800   -2.165700    2.004200
H     -2.256500   -2.039000    2.006400
H     -2.883600   -3.413900   -0.605800
H     -3.488100   -1.773900   -0.289400
H     -2.179300   -1.026000   -2.434200
