12
gdb_3689
C     -0.013300    1.481900    0.015800
C     -0.007700   -0.017600   -0.003000
N      0.141000   -0.626400   -1.193700
C      0.139200   -1.948400   -1.155300
C     -0.009100   -2.627400    0.054600
N     -0.152500   -1.970500    1.200300
N     -0.152200   -0.640700    1.173800
H      0.923900    1.867300   -0.397700
H     -0.821900    1.863600   -0.615300
H     -0.141100    1.845500    1.035300
H      0.256900   -2.481600   -2.096500
H     -0.014200   -3.710900    0.114600
