18
gdb_16561
C     -0.025800    1.552900   -0.039900
O      1.342000    1.967900    0.039400
C      2.192300    0.814600   -0.055800
C      1.317900   -0.241200   -0.741400
C      0.017900    0.013200    0.046300
C      0.229900   -0.429400    1.480700
C      1.415900   -0.272700    2.071300
C      2.591100    0.350000    1.356100
H     -0.588000    2.013000    0.779600
H     -0.462400    1.885000   -0.993800
H      3.075400    1.102900   -0.633600
H      1.195300   -0.016400   -1.805300
H      1.696300   -1.259400   -0.629500
H     -0.866700   -0.449000   -0.396700
H     -0.610000   -0.857000    2.020800
H      1.565800   -0.590400    3.100100
H      3.431000   -0.358900    1.304200
H      2.960100    1.219300    1.915100
