12
gdb_20639
C      0.045100    1.500200    0.006600
C     -0.089000    0.020900    0.052800
C     -1.112800   -0.840900   -0.189200
C     -0.533600   -2.119100    0.047900
N      0.734800   -2.031700    0.403200
O      1.008800   -0.681900    0.404500
C     -1.166600   -3.391300   -0.059700
N     -1.719000   -4.402000   -0.159300
H      0.815900    1.798500   -0.710900
H     -0.902300    1.953400   -0.289300
H      0.332500    1.895400    0.985900
H     -2.122100   -0.617100   -0.488500
