14
gdb_18954
O      0.043000    0.019600   -0.430900
C      0.024000    1.189600   -0.117900
N      1.063400    1.858500    0.473200
C      2.506400    1.614300    0.221500
C      2.603500    2.722400   -0.898400
N      3.703300    3.495900   -0.243700
C      2.899900    2.970300    0.905000
C      1.558500    3.224600    0.154400
H     -0.879800    1.828000   -0.202600
H      2.970500    0.632000    0.281000
H      2.487500    2.617300   -1.977700
H      4.588400    2.988700   -0.319400
H      3.128900    3.161000    1.953000
H      0.936800    4.117400    0.142200
