14
gdb_20720
C     -0.022900    1.532700   -0.004100
C     -0.000600    0.030200   -0.008500
N     -0.048600   -0.571700   -1.165600
N     -0.027800   -1.912700   -1.156800
C      0.039100   -2.788200   -0.067300
O      0.049200   -3.995300   -0.232400
C      0.090600   -2.070200    1.198300
C      0.071100   -0.717000    1.217000
H      0.878200    1.939600    0.468800
H     -0.081100    1.907200   -1.027000
H     -0.882400    1.913200    0.559500
H     -0.066400   -2.344400   -2.071000
H      0.144100   -2.671500    2.098200
H      0.109200   -0.174400    2.157200
