14
gdb_641
C      0.121100    1.568000    0.066700
C      1.315300    0.631900   -0.093100
C     -0.065600    0.087900    0.058300
C     -0.653100   -0.841900    1.115100
C     -1.341100   -1.513500   -0.093200
O     -0.732700   -0.580000   -1.015300
H     -0.000200    2.104000    1.002800
H     -0.206000    2.109900   -0.814300
H      1.765100    0.564900   -1.078000
H      2.010800    0.527600    0.733800
H      0.070200   -1.463000    1.647400
H     -1.325200   -0.369200    1.834000
H     -1.036600   -2.545500   -0.301600
H     -2.434900   -1.449500   -0.114600
