19
gdb_14735
C     -0.223600    1.277700    0.915000
C      0.604300    0.125900    0.335200
N      0.699500   -1.118500    1.082000
C      0.083500   -1.262200    2.167200
O      0.129800   -2.452900    2.815200
C     -0.249200   -2.449400    4.188900
C      0.985800   -2.281900    5.069500
O      1.647800   -1.056400    4.815500
H      0.156800    1.604700    1.888800
H     -0.179900    2.135600    0.237300
H     -1.277400    1.004500    1.035100
H      0.219900   -0.129500   -0.661400
H      1.632100    0.472200    0.162700
H     -0.537100   -0.512600    2.672500
H     -0.964400   -1.639900    4.386200
H     -0.739200   -3.407900    4.387500
H      0.680200   -2.268400    6.121900
H      1.655900   -3.141200    4.924800
H      2.094400   -1.139500    3.966300
