17
gdb_12340
C     -0.069000    1.554100   -0.001900
C      0.078300    0.032900   -0.002700
C      0.745100   -0.511200   -1.282200
C      1.031500   -1.985000   -1.170200
C      1.289200   -2.515000    0.025800
N      1.274300   -1.740800    1.191300
C      0.782200   -0.454300    1.268700
O      0.861400    0.192200    2.293900
H      0.908100    2.039600   -0.094700
H     -0.691300    1.878400   -0.841500
H     -0.521200    1.898100    0.929600
H     -0.923600   -0.421400    0.055800
H      0.096800   -0.300600   -2.139400
H      1.680000    0.040700   -1.471300
H      1.056600   -2.608600   -2.054900
H      1.529400   -3.560600    0.178600
H      1.656800   -2.107700    2.049500
