17
gdb_8132
C     -0.123500    1.536900    0.148600
C      0.007900    0.044700   -0.022800
C     -0.823100   -0.900400    0.769800
N      0.595100   -0.720900    1.120000
C      1.449400   -1.776700    0.577100
C      1.296400   -1.779400   -0.953200
O      1.709100   -2.619100   -1.707100
C      0.540100   -0.499500   -1.335800
H      0.824000    2.040900   -0.073600
H     -0.885900    1.942400   -0.525900
H     -0.405000    1.782700    1.175600
H     -1.526200   -0.520200    1.505500
H     -1.124900   -1.839500    0.305500
H      2.498300   -1.564300    0.821400
H      1.210300   -2.759600    0.994700
H     -0.226300   -0.718100   -2.084300
H      1.252600    0.196800   -1.796900
