15
gdb_15629
O     -0.000600    1.419000    0.007500
C      0.002100    0.002500    0.002000
C     -1.406300   -0.481900    0.012200
C     -2.544800    0.212900    0.024100
C     -3.700100   -0.742400    0.030500
O     -3.102100   -2.044100    0.021100
C     -1.736400   -1.916200    0.010100
N     -0.906100   -2.873500    0.000000
H      0.912900    1.717500    0.001400
H      0.511600   -0.408200   -0.884100
H      0.526700   -0.415000    0.876100
H     -2.646600    1.288500    0.028600
H     -4.333100   -0.647100    0.923000
H     -4.347900   -0.641100   -0.850600
H     -1.388800   -3.773100    0.001000
