17
gdb_5063
C      0.119600    1.490700   -0.031600
C     -0.051600    0.013200   -0.040900
C     -1.141600   -0.803500    0.043600
C     -2.583400   -0.433300    0.196200
C     -0.630700   -2.151900   -0.029900
N     -1.419400   -3.306300    0.105200
C      0.719400   -2.043700   -0.154100
O      1.086100   -0.722700   -0.154900
H      0.789400    1.809100    0.775400
H      0.549100    1.853200   -0.973100
H     -0.843500    1.985100    0.112000
H     -3.180200   -0.733100   -0.675800
H     -3.028500   -0.922500    1.070700
H     -2.712200    0.645400    0.317200
H     -2.287900   -3.243200   -0.412300
H     -0.932200   -4.147400   -0.176500
H      1.520200   -2.759400   -0.232400
