10
gdb_21394
N     -0.012700    1.347200    0.009900
N      1.318600    1.772000   -0.000900
N      2.092000    0.741300   -0.014000
C      1.302700   -0.372400   -0.012300
C     -0.029700    0.004900    0.002900
N     -0.719100   -1.146900    0.003600
N      0.191700   -2.206700   -0.011100
N      1.390800   -1.734500   -0.020500
H     -0.743800    2.037500    0.020900
H     -1.703600   -1.351300    0.012100
