19
gdb_3385
C      0.214200    1.419300    0.166700
C     -0.204500   -0.026800   -0.125200
C      0.580100   -0.635700   -1.271000
C      1.963300   -1.227600   -1.169200
C      2.152500   -2.018100    0.133700
C      0.928600   -2.912900   -0.246600
C      0.757600   -2.106200   -1.541400
H      1.271600    1.473300    0.446700
H      0.074800    2.056700   -0.713700
H     -0.373800    1.848500    0.984200
H     -0.087900   -0.628300    0.782100
H     -1.274400   -0.056900   -0.370500
H      0.462100   -0.076600   -2.199400
H      2.773000   -0.883700   -1.802600
H      3.084800   -2.586900    0.148100
H      2.086600   -1.448300    1.066500
H      1.224200   -3.947300   -0.435000
H      0.077800   -2.921000    0.442400
H      0.502100   -2.535200   -2.503700
