16
gdb_9497
N      0.007100    1.476400   -0.049800
C      0.022700    0.018800   -0.037400
C      0.172800   -0.544800    1.410300
C     -1.361700   -0.774400    1.469600
C     -1.401400   -0.684800   -0.078000
O     -2.444100   -0.024000   -0.725900
C      0.978100   -0.465500   -1.032800
N      1.702100   -0.895800   -1.824800
H     -0.423900    1.824700   -0.901500
H     -0.507300    1.842900    0.744200
H      0.740000   -1.476100    1.425000
H      0.617800    0.152500    2.122500
H     -1.722200   -1.698600    1.923300
H     -1.890000    0.063800    1.936300
H     -1.324700   -1.671500   -0.540500
H     -2.548300    0.844100   -0.320100
