15
gdb_5680
C     -0.048100    1.523800    0.010800
C      1.434100    1.869600   -0.001500
C      2.161400    0.746200   -0.014600
N      1.315100   -0.372400   -0.012800
C      1.410800   -1.740300   -0.021200
C      0.121300   -2.228500   -0.011600
C     -0.781000   -1.117900    0.003100
C     -0.010600    0.019200    0.002000
H     -0.552200    1.933500    0.896000
H     -0.568900    1.943200   -0.860100
H      1.825600    2.875700    0.000400
H      3.233300    0.612600   -0.025600
H      2.365000   -2.241500   -0.033100
H     -0.152400   -3.272900   -0.014800
H     -1.859100   -1.167700    0.013200
