19
gdb_16658
C     -0.820500    1.243600    0.039200
C      0.034700   -0.017400    0.007700
C      0.860300   -0.236100   -1.288000
O      1.252400    1.028800   -1.819100
C      2.057700   -1.082600   -0.799400
C      2.204100   -0.720400    0.671700
C      2.174800    0.719600    1.037700
N      0.957700   -0.105500    1.162500
H     -0.207500    2.140000   -0.073400
H     -1.552800    1.234600   -0.773700
H     -1.357600    1.301900    0.989600
H     -0.624500   -0.890100    0.106200
H      0.265100   -0.777600   -2.036200
H      1.790700    0.867100   -2.599900
H      1.828000   -2.150100   -0.896100
H      2.959500   -0.888800   -1.390600
H      2.683600   -1.439300    1.330800
H      2.591400    1.037700    1.989500
H      2.233700    1.448100    0.236300
