18
gdb_16412
C     -0.017100    1.507200    0.049500
C      0.001300    0.010900   -0.011500
C     -0.007100   -0.724000   -1.126500
C     -0.000700   -2.235700   -1.021800
C     -0.025700   -2.631300    0.461300
C     -1.102500   -1.854200    1.252500
C      0.022800   -0.793700    1.282300
O      1.004700   -1.867400    1.154700
H      0.871000    1.893200    0.566700
H     -0.049300    1.950100   -0.949800
H     -0.886400    1.875200    0.610700
H     -0.007000   -0.267400   -2.113000
H     -0.861700   -2.671700   -1.547300
H      0.896400   -2.651600   -1.499800
H      0.078900   -3.707800    0.620800
H     -2.044500   -1.598600    0.763700
H     -1.275700   -2.301600    2.232800
H      0.183800   -0.190500    2.179300
