15
gdb_5450
C     -0.001900    1.537400    0.072500
C      0.015800    0.040700    0.043800
C     -0.000100   -0.752400   -1.099500
N      0.026200   -2.074200   -0.689400
C      0.057500   -2.134300    0.672100
C      0.052000   -0.843300    1.154400
C     -0.035500   -0.397500   -2.461000
C     -0.066200   -0.101600   -3.630200
H      0.889400    1.941600    0.566300
H     -0.037000    1.944400   -0.941200
H     -0.872100    1.919500    0.618800
H      0.021800   -2.858700   -1.317400
H      0.081000   -3.081500    1.186900
H      0.071900   -0.559100    2.195800
H     -0.093700    0.167200   -4.656600
