18
gdb_10273
C     -0.009600    1.423600    0.237600
N      0.094400   -0.012900    0.084300
C      0.483600   -0.580500   -0.990700
C      0.863600    0.137600   -2.269500
O      1.427400    1.201900   -2.312900
N      0.430200   -1.964800   -1.118100
C     -0.101700   -2.707200    0.013500
C      1.506200   -2.646500   -1.825100
H      0.857800    1.789500    0.801600
H     -0.056100    1.997700   -0.693600
H     -0.896300    1.644600    0.841600
H      0.522700   -0.371900   -3.198200
H     -1.030500   -2.245700    0.348300
H     -0.291200   -3.737300   -0.302700
H      0.590600   -2.720200    0.868300
H      2.370400   -2.847100   -1.172200
H      1.143800   -3.602900   -2.214900
H      1.861500   -2.051900   -2.669500
