16
gdb_12898
C      0.009400    1.567500   -0.032900
C     -0.004900    0.070500    0.064100
C     -1.259900   -0.816800    0.060800
N     -0.575700   -1.830600    0.938900
C      0.578800   -0.927500    1.045700
C      1.206600   -0.779700   -0.325500
C      1.158900   -1.813300   -1.324300
N      1.122900   -2.624900   -2.147700
H      0.996800    1.971100    0.212300
H     -0.242200    1.900300   -1.046600
H     -0.716000    2.014000    0.656000
H     -2.096800   -0.319200    0.560200
H     -1.594000   -1.219100   -0.900500
H     -1.054600   -1.916400    1.828600
H      1.160400   -0.811900    1.953500
H      2.132000   -0.210400   -0.325400
