18
gdb_7005
C     -0.099300    1.527100   -0.008600
C     -0.019300    0.005700   -0.000900
O     -1.294200   -0.584400   -0.169900
C      1.125200   -0.568100   -0.889600
O      1.519500    0.268400   -1.952600
C      2.020600   -0.671600    0.375400
C      0.721700   -0.579100    1.225800
O      0.704100    0.243500    2.367200
H      0.873700    1.989900    0.166300
H     -0.457500    1.876400   -0.982900
H     -0.786000    1.859100    0.773200
H     -1.750900   -0.111600   -0.873900
H      0.827600   -1.562700   -1.248400
H      2.249300   -0.153800   -2.416100
H      2.652000   -1.555100    0.492000
H      2.622200    0.233100    0.496900
H      0.314000   -1.575500    1.440200
H      1.144100   -0.223400    3.083800
