13
gdb_2195
O     -0.166800    1.399900   -0.077600
C      0.008200   -0.002300    0.024900
C      0.188300   -0.475500    1.493100
C     -1.354900   -0.576400    1.566100
O     -2.152800   -0.505600    2.450400
C     -1.438600   -0.599500    0.012700
O     -2.440600    0.057500   -0.682400
H      0.653300    1.839000    0.166900
H      0.714900   -0.383700   -0.718800
H      0.671200   -1.454500    1.575000
H      0.661700    0.222300    2.187100
H     -1.414100   -1.644100   -0.321300
H     -2.311900    1.001300   -0.522800
