26
gdb_10356
C      0.244300    1.556900    0.341400
C     -0.008000    0.067500    0.077200
C      0.589500   -0.475100   -1.241000
C      2.102900   -0.174100   -1.360600
C      2.999800   -0.845100   -0.312400
C      0.246200   -1.977200   -1.451400
C     -1.271200   -2.230600   -1.478700
C      0.871000   -2.548900   -2.735200
H      1.300100    1.774700    0.527300
H     -0.076100    2.170500   -0.508600
H     -0.316300    1.892500    1.219800
H      0.372600   -0.521700    0.922200
H     -1.090200   -0.093300    0.066800
H      0.102800    0.074400   -2.063100
H      2.446000   -0.458500   -2.360500
H      2.246400    0.910700   -1.307200
H      2.933700   -1.936800   -0.355700
H      4.048300   -0.574200   -0.472700
H      2.736300   -0.540700    0.705600
H      0.657600   -2.540400   -0.601300
H     -1.754500   -1.631300   -2.260400
H     -1.479800   -3.283300   -1.696300
H     -1.756200   -1.994500   -0.528800
H      0.550400   -3.584600   -2.888600
H      0.556700   -1.974200   -3.615300
H      1.963500   -2.546900   -2.708700
