17
gdb_15235
C     -1.786700    0.722800   -0.984000
N     -0.801400   -0.298900   -0.639600
C      0.456800   -0.365500   -1.363900
C      0.814000    0.580600   -2.489400
O      0.060100    0.320300   -3.667400
C      0.430300    0.082600    0.076400
C      0.716300    1.447800    0.425600
C      0.948700    2.580000    0.761000
H     -1.386900    1.742000   -1.053900
H     -2.231600    0.457600   -1.945800
H     -2.567400    0.718600   -0.217700
H      0.790800   -1.391000   -1.538400
H      0.601400    1.615800   -2.217800
H      1.896200    0.511900   -2.681300
H      0.243400   -0.583800   -3.943600
H      0.729900   -0.637400    0.835500
H      1.160500    3.578900    1.053000
