24
gdb_15827
C     -0.072300    1.535700   -0.244400
C     -0.000600    0.027700    0.014400
C     -1.383100   -0.635400    0.041200
C     -1.376000   -2.168100    0.200400
C     -0.786400   -2.620700    1.545100
C     -2.777600   -2.727500    0.020500
C     -3.345400   -2.963900   -1.355300
C     -2.990900   -4.136300   -0.470700
H      0.924700    1.987400   -0.261800
H     -0.552700    1.750300   -1.205600
H     -0.653400    2.043300    0.533800
H      0.613000   -0.447700   -0.763000
H      0.520400   -0.149300    0.962800
H     -1.980900   -0.194900    0.852800
H     -1.911400   -0.388100   -0.889100
H     -0.749800   -2.585100   -0.603300
H     -1.359900   -2.201700    2.381100
H     -0.817800   -3.710900    1.635000
H      0.253900   -2.304800    1.664700
H     -3.487200   -2.378700    0.768900
H     -4.393400   -2.748500   -1.532300
H     -2.703800   -2.765500   -2.208300
H     -2.113300   -4.718300   -0.734700
H     -3.796900   -4.722300   -0.042600
