11
gdb_164
C     -0.039300    1.510400    0.053500
C      1.532400    1.530700    0.036000
C      1.500800    0.001600   -0.105900
O      0.783900   -0.512300    1.021600
C      0.028600   -0.017500   -0.089300
H     -0.531800    1.867600    0.960700
H     -0.471000    2.008200   -0.818000
H      1.931600    2.039300   -0.844700
H      2.035600    1.900700    0.932100
H      2.217000   -0.660300   -0.579200
H     -0.680700   -0.697900   -0.546400
