15
gdb_9317
C     -0.028200    1.482300    0.010400
C     -0.020900   -0.035100    0.002000
O     -1.368900   -0.486800    0.012800
C     -1.485300   -1.867500    0.006300
C     -2.948100   -2.263700    0.018300
O     -3.883300   -1.512400    0.031400
C     -3.147500   -3.733400    0.012100
N     -3.291500   -4.880600    0.007000
H      0.996800    1.864000    0.002400
H     -0.551300    1.868000   -0.868600
H     -0.533700    1.858200    0.903900
H      0.495000   -0.420300   -0.892600
H      0.512500   -0.430200    0.881800
H     -1.021300   -2.336300   -0.883100
H     -1.004200   -2.346000    0.881200
