17
gdb_6700
C     -0.042400    1.480200    0.034100
N      0.034800    0.027600    0.023300
C      0.833100   -0.478300    1.130700
C     -1.299600   -0.562500   -0.014000
C     -1.293200   -2.000600   -0.255600
C     -1.326300   -3.192500   -0.449900
C     -1.321600   -4.611900   -0.688000
O     -2.315100   -5.290600   -0.814400
H      0.967900    1.897700   -0.001300
H     -0.586600    1.832600   -0.847900
H     -0.546000    1.885000    0.933300
H      0.413300   -0.216400    2.121200
H      0.906800   -1.567000    1.068800
H      1.842900   -0.062600    1.069800
H     -1.875500   -0.371400    0.916200
H     -1.866200   -0.081500   -0.821700
H     -0.306600   -5.055100   -0.750000
