12
gdb_21635
N     -0.007500    1.333300    0.128500
C     -0.007600   -0.029500    0.042600
N     -1.106900   -0.760700    0.029200
N     -0.594800   -2.035800    0.003800
C     -1.374700   -3.196200   -0.018400
O     -2.571100   -3.222600   -0.015100
C      0.770700   -1.974800   -0.006000
N      1.182300   -0.737900    0.017000
H      0.830200    1.780300   -0.208500
H     -0.870200    1.786400   -0.129600
H     -0.724600   -4.090500   -0.040500
H      1.393000   -2.857500   -0.030100
