15
gdb_19144
O     -0.305100    0.437900    1.196300
C     -0.249700    1.443700    0.529000
C      1.021700    1.953600   -0.074800
C      2.182000    2.021700    0.883100
N      2.130100    0.992000   -0.141500
C      0.881200    2.949700   -1.183200
C      1.795700    2.967700   -2.329100
O      0.476400    2.431900   -2.454100
H     -1.154200    2.053400    0.324200
H      2.927700    2.796900    0.729600
H      1.986900    1.746300    1.915600
H      1.795600    0.122000    0.275200
H      0.377900    3.877200   -0.902800
H      1.970900    3.904700   -2.855800
H      2.597000    2.234500   -2.363000
