13
gdb_936
C     -0.013300    1.490000    0.015200
C      0.005200   -0.013200    0.012100
N      0.114900   -0.615100   -1.182300
C      0.131000   -1.946500   -1.180700
C      0.039900   -2.695300   -0.012300
C     -0.070000   -1.972000    1.167200
N     -0.088500   -0.637400    1.193300
H      0.903500    1.880100   -0.438100
H     -0.847400    1.858900   -0.590000
H     -0.106100    1.866600    1.033800
H      0.220000   -2.430700   -2.151300
H      0.054000   -3.778300   -0.022600
H     -0.146400   -2.474100    2.129600
