14
gdb_9336
O      0.186700    1.148300   -0.544800
C     -0.048400   -0.195400   -0.182800
C     -1.507600   -0.452200    0.147700
O     -2.248700   -0.164200   -1.062100
C     -3.566400   -0.347100   -1.009200
O     -4.193500   -0.752000   -0.063300
C     -4.257500    0.023100   -2.327100
O     -3.693100    0.464500   -3.287600
H     -0.354500    1.329700   -1.321400
H      0.273800   -0.894200   -0.970100
H      0.554500   -0.396700    0.708700
H     -1.689800   -1.489000    0.446900
H     -1.861800    0.213000    0.940500
H     -5.348800   -0.162500   -2.277900
