20
gdb_19149
C     -0.322800    1.742500    0.118100
C     -0.382300    0.214500    0.184100
C      0.634900   -0.492100    1.081500
C      2.017500    0.075000    1.281400
C      1.027800    0.090000    2.421300
C      0.437000   -1.979800    1.041600
O      0.798300   -2.667400   -0.165100
C      1.503500   -2.988800    1.032400
H      0.625600    2.099300   -0.294500
H     -1.119400    2.117400   -0.531700
H     -0.460800    2.206000    1.100200
H     -1.386800   -0.086200    0.513500
H     -0.264800   -0.192900   -0.827700
H      2.863500   -0.598700    1.345300
H      2.251300    1.019200    0.803700
H      0.603700    1.041200    2.722500
H      1.190200   -0.601100    3.242000
H     -0.532300   -2.299800    1.433700
H      2.549100   -2.689300    1.051100
H      1.304400   -3.978100    1.444700
