18
gdb_3594
C     -0.060400    1.546600   -0.020800
C      0.008700    0.036200    0.013600
C      1.326300   -0.679400   -0.190300
C      0.661800   -0.695800    1.162300
N      1.274100    0.074400    2.209900
C      0.648700   -0.000200    3.526500
C      1.948300   -0.678800    3.262300
H      0.808000    1.984000    0.476300
H     -0.091500    1.913100   -1.052800
H     -0.957300    1.914100    0.490700
H     -0.861500   -0.464800   -0.403600
H      1.351500   -1.594700   -0.771400
H      2.212700   -0.059900   -0.277500
H      0.196600   -1.636400    1.473500
H      0.612900    0.928900    4.088400
H     -0.229900   -0.633800    3.637200
H      1.937700   -1.765500    3.195400
H      2.879100   -0.254200    3.627600
