18
gdb_7796
C     -0.046900    1.557000    0.008300
C      0.029000    0.030300   -0.010300
C      0.697800   -0.507700   -1.282800
N      0.981700   -1.936600   -1.225300
C      1.871600   -2.252300   -0.109700
C      1.586800   -1.548800    1.221000
O      2.093400   -1.918200    2.264500
N      0.770100   -0.454300    1.152800
H      0.955000    1.994800   -0.044200
H     -0.633000    1.922100   -0.840800
H     -0.528700    1.917600    0.923500
H     -0.999900   -0.367300    0.021600
H      0.057200   -0.296500   -2.145000
H      1.647300    0.020800   -1.442700
H      0.111000   -2.448700   -1.120300
H      1.867700   -3.327700    0.082200
H      2.902600   -1.991600   -0.386200
H      0.575600   -0.032400    2.051200
