13
gdb_21627
N     -0.155600    1.250600   -0.100300
C     -0.085000   -0.100900   -0.046100
N     -1.049500   -0.961100   -0.239300
C     -0.402600   -2.150900    0.001800
C     -1.143200   -3.452000   -0.093500
O     -1.955500   -3.494800   -1.248100
N      0.859600   -2.059500    0.311700
O      1.084400   -0.649700    0.290000
H      0.711000    1.752400   -0.207000
H     -0.954100    1.628400   -0.583400
H     -0.431000   -4.278500   -0.150000
H     -1.738100   -3.582700    0.825300
H     -2.413700   -2.646900   -1.294100
