14
gdb_5131
C     -0.060300    1.452900   -0.000600
N     -0.016000    0.006400    0.016900
C     -0.123100   -0.851000   -1.042000
N     -0.039100   -2.111500   -0.664400
C      0.128700   -2.073700    0.687400
O      0.257900   -3.187500    1.461100
C      0.146800   -0.780800    1.136200
O      0.282100   -0.194300    2.356000
H      0.870700    1.876300    0.387600
H     -0.198600    1.784000   -1.031300
H     -0.890100    1.825000    0.607400
H     -0.259600   -0.495000   -2.051200
H      0.204600   -3.940400    0.861400
H      0.383700   -0.898800    3.004900
