17
gdb_13663
C     -0.384600    1.481400    0.136700
C      0.329800    0.150800    0.044200
C      1.768100    0.018300    0.507700
C      0.648900   -0.640400    1.276300
O      0.228100   -0.098900    2.502100
C      0.941000   -0.571900    3.616900
C      2.302900   -0.011900    3.737500
N      3.363900    0.431200    3.849000
H     -0.101900    2.016800    1.045700
H     -0.138100    2.112000   -0.723600
H     -1.471200    1.345800    0.155100
H      0.054200   -0.451300   -0.817600
H      2.456900   -0.609000   -0.047200
H      2.218000    0.894300    0.961000
H      0.560200   -1.726600    1.237800
H      0.370700   -0.280100    4.504100
H      1.019700   -1.669500    3.613900
