12
gdb_4612
N      0.021500    1.446600    0.143900
C     -0.019400    0.047800    0.030600
C     -1.145700   -0.704000    0.006000
O     -1.109700   -2.044800   -0.003400
C      0.112500   -2.754900   -0.031800
O      0.049200   -3.947500   -0.068700
N      1.276900   -2.002900   -0.010900
C      1.199600   -0.711000    0.027700
H      0.717500    1.874100   -0.454700
H     -0.874300    1.890100   -0.013500
H     -2.158600   -0.314600    0.009100
H      2.145000   -0.164100    0.059000
