24
gdb_10859
C     -0.153700    1.588000    0.012000
C     -0.030600    0.061800    0.002700
C      0.672700   -0.446600   -1.267100
C      0.806900   -1.977200   -1.278600
C      1.517700   -2.531000   -0.026000
C      3.030000   -2.258700   -0.039000
C      0.831000   -1.990800    1.245700
C      0.696800   -0.460200    1.253200
H      0.835800    2.061100    0.005100
H     -0.699300    1.950300   -0.866100
H     -0.682400    1.940700    0.904300
H     -1.047000   -0.362600    0.010100
H      0.121200   -0.117000   -2.156200
H      1.664800    0.020900   -1.336100
H     -0.199100   -2.415600   -1.333500
H      1.334400   -2.303600   -2.183100
H      1.392300   -3.621900   -0.030700
H      3.263700   -1.189600   -0.035500
H      3.513000   -2.701600    0.838700
H      3.496200   -2.692100   -0.930500
H     -0.173800   -2.429800    1.315100
H      1.375600   -2.326800    2.136500
H      1.690100    0.006700    1.308300
H      0.162300   -0.140200    2.156200
