12
gdb_20325
C      0.012400   -1.209200   -0.127200
C      0.014000   -0.011900   -0.041100
C      0.013400    1.443700    0.070100
C      1.395300    2.030100    0.030700
N      1.892000    2.689900    1.042700
O      3.164900    3.064800    0.593400
C      3.274500    2.580000   -0.643800
N      2.233400    1.935700   -1.061600
H      0.011400   -2.268100   -0.206400
H     -0.569400    1.876300   -0.752600
H     -0.463100    1.756200    1.004800
H      4.200400    2.769400   -1.166900
