10
gdb_21427
N     -0.087100    1.286400   -0.279200
C     -0.007100    0.087200    0.089500
O     -1.189600   -0.548500    0.432400
C     -1.206000   -1.840300    0.841200
O     -2.209700   -2.409300    1.141600
N      0.054500   -2.420000    0.872400
N      1.228700   -1.824300    0.544100
N      1.214800   -0.629400    0.169200
H      0.848100    1.628200   -0.499100
H      0.131100   -3.381900    1.166700
