17
gdb_11222
C     -0.045800    1.558400    0.079800
C      0.006700    0.064400    0.040300
C     -0.284900   -0.722800   -0.995500
C     -0.050100   -2.192000   -0.685800
C      0.097800   -2.197900    0.868000
C      0.475200   -0.744500    1.232600
C     -1.112800   -3.076800   -1.166900
N     -1.953700   -3.773200   -1.546800
H      0.941200    1.980700    0.307100
H     -0.385900    1.978200   -0.870200
H     -0.721900    1.905600    0.871000
H     -0.609900   -0.390300   -1.974100
H      0.881400   -2.531200   -1.162500
H     -0.866800   -2.454500    1.312700
H      0.825000   -2.938000    1.207400
H      1.559300   -0.623800    1.369200
H      0.011400   -0.418200    2.170500
