24
gdb_13713
C     -0.251600    1.583300    0.161900
C      0.076500    0.098800   -0.019700
C      0.702400   -0.537000    1.225900
C      1.039400   -2.024100    1.051000
C      1.662000   -2.632200    2.291700
C      0.802000   -3.177900    3.410000
C      1.655700   -4.115800    2.588800
C      1.031700   -5.143000    1.668500
H      0.649800    2.162300    0.392400
H     -0.698300    2.009500   -0.741900
H     -0.958300    1.734300    0.985700
H     -0.838000   -0.448800   -0.284600
H      0.758800   -0.024400   -0.871400
H      1.616000    0.012600    1.493200
H      0.020900   -0.420300    2.079300
H      0.125600   -2.567700    0.782300
H      1.723600   -2.140700    0.198500
H      2.561700   -2.111700    2.614800
H      1.076000   -2.975100    4.439900
H     -0.270500   -3.208300    3.237400
H      2.552700   -4.475700    3.087600
H      0.104100   -4.780400    1.216800
H      1.711400   -5.418200    0.853900
H      0.788300   -6.058300    2.219700
