18
gdb_7559
O      0.032400    1.456300    0.210000
C     -0.021000    0.041800    0.288600
C     -1.343200   -0.532600   -0.226600
C     -1.414200   -2.042200   -0.126200
O     -0.534000   -2.739300   -0.974300
C     -1.753900   -2.703000    1.201600
C     -2.732400   -2.725500    0.041900
O     -3.877300   -1.927300    0.077900
H     -0.073600    1.702000   -0.714700
H      0.824700   -0.414700   -0.252500
H      0.105500   -0.200600    1.349700
H     -2.173900   -0.086800    0.326000
H     -1.471400   -0.255900   -1.282100
H      0.345200   -2.708400   -0.582400
H     -1.248100   -3.628300    1.455100
H     -1.992500   -2.053600    2.037800
H     -2.832300   -3.668900   -0.493400
H     -4.481600   -2.303900    0.725900
