22
gdb_6418
C     -0.077800    1.585400   -0.002400
C      0.033400    0.059100   -0.007400
C      0.726200   -0.499800    1.241000
O      0.055800   -0.095200    2.436700
C      0.884500   -2.024700    1.195400
C      1.752100   -2.568700    2.338300
C      1.753100   -4.095600    2.400600
O      3.082200   -2.055600    2.258600
H      0.914500    2.049800   -0.006300
H     -0.620900    1.947800   -0.880400
H     -0.598700    1.930900    0.894400
H     -0.968700   -0.390100   -0.085200
H      0.583400   -0.276000   -0.895900
H      1.725300   -0.057700    1.330800
H     -0.843200   -0.441600    2.394600
H     -0.110800   -2.491800    1.232100
H      1.328800   -2.323200    0.234600
H      1.363400   -2.163400    3.278600
H      2.118500   -4.525400    1.458700
H      2.404300   -4.441300    3.208100
H      0.745700   -4.488200    2.574000
H      3.494600   -2.438900    1.476000
