21
gdb_10169
C     -1.812300   -1.611600   -4.374000
C     -1.417000   -1.343500   -2.919600
C     -1.796400   -2.499700   -1.992100
C     -1.421800   -2.271400   -0.546400
O     -1.719900   -3.250400    0.364500
C     -2.363700   -4.452100   -0.030900
N     -0.847400   -1.209500   -0.170200
C     -0.517100   -1.060300    1.239200
H     -1.531700   -0.772800   -5.018200
H     -1.319200   -2.508900   -4.765800
H     -2.893600   -1.759800   -4.476100
H     -0.340200   -1.165600   -2.842600
H     -1.892400   -0.427100   -2.557000
H     -2.877700   -2.687200   -2.056100
H     -1.322000   -3.427300   -2.342400
H     -1.766000   -5.024200   -0.749400
H     -2.477700   -5.043500    0.879800
H     -3.356300   -4.268300   -0.457500
H     -0.028700   -0.094400    1.391100
H     -1.409700   -1.102600    1.877100
H      0.159900   -1.851000    1.588500
