18
gdb_19365
C      0.031900    1.330800    0.212900
O     -0.019100   -0.031500   -0.180800
C     -1.283800   -0.568100   -0.096400
C     -1.875500   -1.066800    1.195000
C     -1.655700   -2.018900    0.030100
C     -2.686800   -1.852300   -1.124600
C     -3.723500   -0.783800   -0.896300
C     -2.317600   -0.384600   -1.255000
H      1.068500    1.656700    0.102300
H     -0.610100    1.959900   -0.419700
H     -0.279500    1.456400    1.259100
H     -1.126900   -1.185800    1.973200
H     -2.857700   -0.798700    1.569600
H     -1.009700   -2.881900    0.121000
H     -2.785100   -2.583300   -1.916600
H     -4.436200   -0.678600   -1.709900
H     -4.158300   -0.584800    0.076900
H     -2.068300    0.162100   -2.155400
