15
gdb_18579
O      0.579800    1.043900   -0.625700
C      0.128900   -0.148300   -0.050800
C      0.161100   -0.316400    1.507100
C     -1.341000   -0.731100    1.483000
N     -2.234400    0.240000    2.132100
C     -2.588900    1.038100    1.216900
O     -2.157600    0.841900   -0.066400
C     -1.403300   -0.395200   -0.038400
H     -0.117400    1.698900   -0.496500
H      0.654100   -0.967000   -0.552600
H      0.864700   -1.061800    1.883500
H      0.319700    0.624400    2.039000
H     -1.566600   -1.749200    1.800800
H     -3.229000    1.904600    1.338900
H     -1.835000   -1.075300   -0.774600
