24
gdb_6533
C      0.265400    1.485500    0.276800
C     -0.193700    0.092300   -0.177600
C      0.599200   -0.476600   -1.353500
C      0.405800    0.327200   -2.631500
C      1.974400   -1.054800   -1.074700
C      0.839100   -1.985400   -1.451000
C      0.296200   -2.926800   -0.385500
C      0.875100   -2.662800   -2.813200
H      1.329600    1.482000    0.536200
H      0.114500    2.244200   -0.496600
H     -0.294200    1.806000    1.161400
H     -0.130000   -0.581200    0.680300
H     -1.257400    0.133900   -0.450400
H      0.664600    1.379100   -2.472500
H      1.028400   -0.029000   -3.453600
H     -0.638800    0.293800   -2.965000
H      2.762300   -0.879700   -1.801700
H      2.323500   -1.069500   -0.045900
H      0.382700   -2.528000    0.626900
H     -0.759300   -3.167200   -0.562800
H      0.853400   -3.870900   -0.406300
H      1.428700   -3.607100   -2.747300
H     -0.135800   -2.902000   -3.165700
H      1.360900   -2.058500   -3.581000
