17
gdb_14680
C      0.709300    1.292800   -0.681900
C     -0.072900   -0.002000   -0.437500
N      0.585800   -1.276000   -0.673200
C      1.775500   -1.321100   -1.066600
O      2.370200   -2.528400   -1.259900
C      3.713300   -2.481700   -1.740000
C      3.816800   -2.070200   -3.138100
C      3.895200   -1.723900   -4.285800
H      1.593600    1.363700   -0.039300
H      1.036300    1.382000   -1.723300
H      0.070100    2.152800   -0.460400
H     -0.432000   -0.017400    0.600200
H     -0.982000    0.003200   -1.053400
H      2.429200   -0.467100   -1.279300
H      4.323700   -1.821200   -1.107900
H      4.095700   -3.498400   -1.614400
H      3.965300   -1.424100   -5.302400
