20
gdb_15837
C      0.177100    1.390300    0.054300
O      0.037400   -0.009200    0.021900
C      0.678000   -0.651600    1.102500
C      0.523200   -2.168400    0.940000
C      1.218200   -2.661800   -0.333900
C      1.008700   -2.842900    2.210300
C      1.680600   -4.146800    2.262500
O      2.424700   -2.935600    2.411900
H      1.234100    1.697200    0.010200
H     -0.344400    1.792400   -0.817900
H     -0.266400    1.825100    0.964400
H      1.748400   -0.386500    1.134000
H      0.233400   -0.322700    2.058100
H     -0.554600   -2.368200    0.862200
H      0.938800   -2.023200   -1.173900
H      2.305600   -2.624700   -0.214200
H      0.932400   -3.688900   -0.577800
H      0.469400   -2.536000    3.109900
H      1.595600   -4.756200    3.161600
H      1.873200   -4.700200    1.346400
