16
gdb_8859
C     -0.085500    1.531400    0.065000
C     -0.096900    0.008800   -0.081900
C      0.818800   -0.459600   -1.231000
O      2.142300   -0.047300   -1.028000
C      0.782100   -1.979000   -1.383600
O      1.796800   -2.633600   -1.236500
C     -0.486600   -2.587000   -1.712000
C     -1.548400   -3.074300   -2.001700
H      0.933200    1.890900    0.228900
H     -0.475300    2.017600   -0.836200
H     -0.704200    1.845600    0.910600
H      0.252700   -0.461400    0.845200
H     -1.114800   -0.352000   -0.267200
H      0.432700   -0.034300   -2.174200
H      2.665700   -0.863700   -0.979500
H     -2.480500   -3.518600   -2.255800
