15
gdb_1464
C     -0.093600    1.448800    0.025100
C      0.004100   -0.003100    0.001500
C      0.092700   -1.204700    0.003400
C      0.177300   -2.659400   -0.060900
O     -1.102800   -3.292700    0.094100
C      0.812300   -3.146200   -1.377200
O      0.811900   -4.552900   -1.425600
H      0.791300    1.893800    0.492800
H     -0.179200    1.861400   -0.985900
H     -0.969400    1.776300    0.595600
H      0.778900   -3.047600    0.769400
H     -1.738600   -2.776200   -0.414700
H      0.256900   -2.701000   -2.220500
H      1.850200   -2.805500   -1.443100
H     -0.066300   -4.817200   -1.120100
