22
gdb_8456
C     -0.150500    1.521500    0.010700
C      0.060000    0.009000    0.042600
C      1.000500   -0.558800   -1.075000
C      2.035000   -1.311500   -0.207100
C      3.144500   -2.051300   -0.918200
C      1.107400   -1.999100    0.845200
C      0.827200   -0.531400    1.272500
C      2.314200   -0.256500    0.908300
H      0.797200    2.065800    0.079900
H     -0.638800    1.830300   -0.920200
H     -0.784000    1.849900    0.842300
H     -0.922500   -0.475100   -0.011000
H      0.480300   -1.226200   -1.770000
H      1.469300    0.236300   -1.666200
H      3.746800   -1.368800   -1.529700
H      3.817200   -2.543500   -0.207400
H      2.742200   -2.822400   -1.585900
H      0.267100   -2.599500    0.479900
H      1.673400   -2.560100    1.593700
H      0.421500   -0.286600    2.255500
H      3.005200   -0.631300    1.668200
H      2.609300    0.752700    0.605300
