18
gdb_17331
C      0.093300    1.505100    0.029100
C     -0.025800    0.000800    0.000600
C     -0.699800   -0.771200    1.077300
N      0.770600   -0.784800    0.977300
C      1.368100   -1.942900    0.272700
C      0.958500   -1.871100   -1.194200
N     -0.491000   -2.041100   -1.418800
C      0.084700   -0.680000   -1.351100
H      0.981900    1.843600   -0.516400
H     -0.783700    1.977500   -0.428100
H      0.177000    1.859300    1.059200
H     -1.078700   -0.251100    1.954500
H     -1.251600   -1.658600    0.784600
H      2.457900   -1.859200    0.352800
H      1.066600   -2.882800    0.746500
H      1.653400   -2.192300   -1.965000
H     -0.656300   -2.287700   -2.392100
H      0.094100   -0.064000   -2.244100
