20
gdb_14756
C     -0.043900    1.390200    0.057500
O     -0.008300   -0.015100    0.022500
C      0.641900   -0.520600   -1.122900
C      0.624400   -2.041900   -1.060500
C      1.310200   -2.688600   -2.266400
C      1.288200   -4.228900   -2.195700
C      1.937900   -4.862100   -3.336800
C      2.479000   -5.358900   -4.288300
H      0.968100    1.826300    0.067900
H     -0.585600    1.808700   -0.806100
H     -0.562700    1.682900    0.973800
H      0.136100   -0.167600   -2.039200
H      1.681300   -0.149800   -1.169900
H      1.114000   -2.358300   -0.131300
H     -0.418300   -2.376000   -0.993300
H      0.822100   -2.370300   -3.195200
H      2.351800   -2.352700   -2.334600
H      1.775900   -4.557900   -1.268600
H      0.248400   -4.575500   -2.128400
H      2.953800   -5.809400   -5.124000
