14
gdb_4524
N      0.174600    1.422000    0.048400
C     -0.016100    0.020300    0.010600
C     -1.121300   -0.801200   -0.016300
C     -0.646000   -2.148300   -0.049400
O     -1.349400   -3.338000   -0.020600
C      0.726600   -2.101300   -0.036100
O      1.656500   -3.089500   -0.040900
N      1.106800   -0.792100    0.005700
H     -0.206600    1.879100   -0.773500
H     -0.270400    1.840800    0.858300
H     -2.152400   -0.481400   -0.009300
H     -1.915800   -3.380800   -0.798100
H      1.164900   -3.919700   -0.033900
H      2.051900   -0.450300    0.036600
