14
gdb_12187
C      0.411600    1.510600   -0.080700
C      0.032500    0.048200    0.073100
O      0.777900   -0.843400   -0.796200
C      1.326400   -1.638700    0.285500
C      2.771900   -1.668200    0.345300
C      3.971200   -1.677300    0.421900
C      0.588900   -0.700300    1.289800
O      0.515200   -0.605400    2.471700
H      1.485900    1.651400    0.064000
H      0.145800    1.862400   -1.081500
H     -0.128100    2.113600    0.655800
H     -1.050800   -0.093800   -0.049400
H      0.910200   -2.656100    0.285200
H      5.031600   -1.691900    0.483900
