22
gdb_6934
C      0.093600    1.527600    0.237200
C     -0.065100    0.005600    0.235200
C     -1.374800   -0.460900   -0.418000
C     -1.499800   -1.965500   -0.416900
O     -1.771100   -2.607300    0.839000
C     -2.737500   -2.745800   -0.219300
C     -4.078500   -2.090300    0.032700
C     -2.819100   -4.140500   -0.806200
H      1.033400    1.829300    0.710000
H      0.089700    1.929500   -0.782400
H     -0.723700    2.010400    0.784500
H      0.783900   -0.452900   -0.288800
H     -0.033100   -0.376200    1.262400
H     -2.222200   -0.006000    0.104100
H     -1.415000   -0.107800   -1.458100
H     -0.709300   -2.463900   -0.986600
H     -3.974100   -1.125000    0.529500
H     -4.621600   -1.944000   -0.907500
H     -4.692800   -2.732300    0.673800
H     -3.385200   -4.802300   -0.141300
H     -3.327800   -4.127400   -1.776400
H     -1.821400   -4.565300   -0.940900
