14
gdb_3789
C      0.082900    1.389500    0.129800
N     -0.202400   -0.001300   -0.172400
C      0.536600   -0.633900   -1.160700
N      0.701700   -1.956700   -1.132000
N      1.402500   -2.226500   -2.262400
C      1.690200   -1.123100   -2.982800
C      1.147000   -0.052500   -2.303800
H      1.133500    1.581800    0.400800
H     -0.162900    2.019500   -0.731600
H     -0.553300    1.709500    0.958500
H     -0.307500   -0.589600    0.642000
H      1.652700   -3.178900   -2.459600
H      2.246900   -1.174600   -3.905500
H      1.180400    0.984300   -2.592700
