18
gdb_5303
C      0.035400    1.600000    0.157100
C     -0.039300    0.077000   -0.013800
C      0.798200   -0.637200    1.066800
C     -1.463500   -0.398100   -0.015800
C     -2.662300    0.212400    0.260400
N     -3.716200   -0.666200    0.127900
C     -3.169800   -1.803400   -0.226900
N     -1.812400   -1.700200   -0.327900
H      1.074700    1.938400    0.112500
H     -0.527500    2.116500   -0.625300
H     -0.374000    1.904100    1.126300
H      0.404000   -0.170200   -0.990600
H      0.412800   -0.406900    2.065300
H      0.776700   -1.725300    0.946500
H      1.844200   -0.317100    1.019600
H     -2.828200    1.239700    0.545900
H     -3.693000   -2.727200   -0.425400
H     -1.177000   -2.434300   -0.592600
