17
gdb_12985
C     -0.118800    1.524000    0.080600
C      0.010000    0.026400    0.005700
C     -0.812500   -0.903000    0.848900
N      0.608000   -0.741100    1.122900
C      1.433900   -1.833800    0.539900
C      1.117200   -1.940100   -0.963500
C      0.448300   -0.596100   -1.291700
O      0.344900   -0.092000   -2.381300
H      0.841800    2.008700   -0.119200
H     -0.831100    1.873800   -0.672100
H     -0.462800    1.835900    1.069400
H     -1.478500   -0.461600    1.585200
H     -1.169700   -1.836300    0.418200
H      2.481500   -1.558900    0.693600
H      1.248400   -2.758400    1.093500
H      2.003200   -2.071400   -1.587100
H      0.430000   -2.756000   -1.212900
