19
gdb_8546
C     -0.016500    1.559600   -0.022400
C     -0.045600    0.049400    0.008600
C      0.364200   -0.731100   -1.275700
C     -0.724900   -1.800700   -0.999000
C     -0.348300   -2.739800    0.162200
N     -0.683100   -1.702500    1.197300
C      0.423700   -0.690500    1.283200
C     -1.322000   -0.860300    0.096000
H      1.015300    1.929100   -0.077400
H     -0.553100    1.954100   -0.892500
H     -0.473100    1.987100    0.877400
H      0.114800   -0.147800   -2.168300
H      1.403300   -1.068600   -1.359100
H     -1.270500   -2.208100   -1.851000
H     -1.036800   -3.585700    0.261400
H      0.679300   -3.119800    0.205600
H      1.435900   -1.112600    1.291700
H      0.293300   -0.083800    2.186800
H     -2.357000   -0.533400    0.198600
