18
gdb_14466
O     -0.074200    1.362000    0.059400
C      0.041100   -0.021200    0.042300
C      1.085500   -0.773700    0.863700
C      0.618200   -2.199700    0.483600
C     -0.893800   -2.132800    0.822000
C     -1.202100   -0.874000    0.020000
C     -0.256300   -0.873200   -1.181900
C      0.601900   -2.127900   -1.065700
H      0.671600    1.730100   -0.427000
H      2.113400   -0.565000    0.543500
H      1.002900   -0.566200    1.935600
H      1.177500   -3.025600    0.922400
H     -1.443600   -3.013000    0.471800
H     -1.078300   -2.012500    1.894800
H     -2.181200   -0.418000   -0.037700
H     -0.547300   -0.422200   -2.121600
H      1.604500   -2.004200   -1.490100
H      0.141700   -3.011100   -1.522300
