20
gdb_20050
C     -0.204700    1.189100   -0.367000
C      1.239600    0.885800   -0.040600
C      0.186300   -0.177500    0.132400
C     -0.224200   -0.642600    1.516500
C     -1.645100   -1.283300    1.499500
C     -1.364500   -2.766600    1.504600
C     -0.091900   -3.033900    1.792200
C      0.711000   -1.778200    2.032000
H     -0.748200    1.839600    0.311200
H     -0.484900    1.304400   -1.408300
H      1.945100    0.794100   -0.859100
H      1.658300    1.334100    0.855100
H      0.187600   -0.972000   -0.611300
H     -0.194700    0.221200    2.189100
H     -2.231800   -0.997400    2.383900
H     -2.225600   -0.956300    0.628800
H     -2.135200   -3.508100    1.322900
H      0.335500   -4.027000    1.881300
H      1.675400   -1.775700    1.510500
H      0.940400   -1.663700    3.100800
