15
gdb_2313
C      0.117000    1.506800   -0.221200
C     -0.030200    0.043100    0.109500
O      1.157900   -0.759400    0.125300
C      0.438900   -0.600700    1.347600
C      1.135600    0.138500    2.480100
C      1.999700   -0.737900    3.264100
C      2.696300   -1.477700    3.905000
H      0.958400    1.965100    0.301700
H      0.281600    1.632500   -1.296400
H     -0.797100    2.050000    0.041900
H     -0.870300   -0.442700   -0.392300
H     -0.082600   -1.501800    1.674600
H      1.722400    0.967200    2.072500
H      0.371700    0.579900    3.134800
H      3.321700   -2.124600    4.468700
