13
gdb_934
C     -0.010000    1.523500    0.010300
C     -0.004400    0.019000    0.002200
C     -0.003300   -0.726300   -1.177300
N      0.024300   -2.059600   -1.201900
C      0.048400   -2.662400   -0.012700
N      0.038600   -2.072600    1.183200
C      0.010700   -0.739000    1.173400
H      1.010300    1.924900    0.002800
H     -0.523900    1.923700   -0.868400
H     -0.507100    1.914000    0.903000
H     -0.030100   -0.224600   -2.144000
H      0.074200   -3.749400   -0.018800
H     -0.004500   -0.247900    2.145700
