14
gdb_16044
N     -0.155300    1.478600   -0.104400
C     -0.099000    0.046700   -0.049100
C     -0.452600   -0.737300    1.168100
O     -1.415800   -0.026300    1.940100
C     -2.398700   -0.122200    0.869700
C     -1.385700   -0.797600   -0.056100
C     -1.650200   -1.832600   -0.990900
N     -1.858400   -2.674000   -1.759400
H     -0.411200    1.842200    0.809400
H      0.752800    1.857800   -0.344100
H      0.671300   -0.405000   -0.666800
H      0.135100   -1.502900    1.662900
H     -3.221500   -0.777100    1.167500
H     -2.772800    0.855900    0.552800
