14
gdb_5101
C      0.051200    1.420500    0.043200
N      0.019700   -0.025400    0.037100
C      0.050200   -0.790000   -1.116000
N      0.078400   -0.327400   -2.298000
O      0.041900   -2.103700   -0.722900
C      0.025000   -2.141800    0.677500
C      0.015500   -0.879700    1.129200
O     -0.003500   -0.322000    2.355900
H      1.068900    1.801200   -0.099800
H     -0.570100    1.784000   -0.777700
H     -0.337400    1.781700    0.996100
H      0.082100   -1.082300   -2.978400
H      0.017800   -3.106200    1.148900
H     -0.037400   -1.019700    3.018400
