13
gdb_8868
O      0.434400    0.288800    0.980900
C     -0.129900    0.273500   -0.309100
C     -1.503900   -0.447200   -0.377800
O     -2.010200   -0.357000   -1.676700
C     -1.376800   -1.906300    0.029000
O     -1.535700   -2.798200   -0.773100
C     -1.083300   -2.201900    1.434500
N     -0.916700   -2.455300    2.550300
H     -0.064800    0.896200    1.536400
H     -0.278800    1.277300   -0.727700
H      0.574100   -0.254700   -0.959500
H     -2.188100    0.040200    0.336900
H     -2.029100   -1.259700   -2.030500
