17
gdb_10814
C      0.038800    1.591100   -0.005900
C     -0.008500    0.058000    0.007100
C      0.632000   -0.528600   -1.257700
N      0.775400   -1.973600   -1.141400
C      1.301500   -2.564900   -0.015600
O      1.709500   -3.713700   -0.007900
C      1.278600   -1.710600    1.200600
C      0.663000   -0.526400    1.226100
H      1.072300    1.953400   -0.021200
H     -0.473300    1.992800   -0.886100
H     -0.448500    2.004300    0.882500
H     -1.065100   -0.252100    0.031900
H      0.011600   -0.308500   -2.131700
H      1.608300   -0.041500   -1.418500
H      0.917300   -2.509700   -1.985200
H      1.744300   -2.149400    2.075400
H      0.606100    0.044500    2.150800
