18
gdb_18365
C     -0.001800    1.570500    0.015400
C      0.083700    0.046100    0.004900
C      0.960500   -0.540400   -1.117900
O      1.331400   -1.849000   -0.682100
C      1.489900   -1.811900    0.719300
C      2.749800   -1.095000    1.253100
O      1.977700    0.068800    1.628500
C      0.733800   -0.568300    1.247400
H      0.981700    2.002400    0.218800
H     -0.356900    1.952300   -0.947400
H     -0.691900    1.924100    0.787800
H     -0.920100   -0.389900   -0.080200
H      0.441800   -0.644800   -2.074100
H      1.850600    0.088300   -1.273600
H      1.277400   -2.804500    1.118000
H      3.219200   -1.567200    2.125100
H      3.514400   -0.871000    0.500500
H      0.057600   -0.672800    2.101700
