14
gdb_1649
C      0.054800    1.439100   -0.020500
N     -0.081200   -0.001200   -0.036300
C     -1.268200   -0.634700    0.067800
O     -2.362400   -0.108200    0.185200
C     -1.112700   -2.173700    0.022300
C     -2.393500   -2.954200    0.132200
O     -0.015200   -2.672100   -0.094500
H      0.669100    1.770600    0.823900
H      0.510200    1.804300   -0.947400
H     -0.945400    1.863900    0.077600
H      0.725900   -0.601800   -0.126300
H     -3.075900   -2.658000   -0.670700
H     -2.185200   -4.023100    0.087800
H     -2.902800   -2.696900    1.066300
