18
gdb_13732
O     -0.913000    1.337400   -1.052700
C     -0.503600    0.275600   -0.216000
C     -1.653500   -0.622800    0.232200
O     -2.196700   -1.315500   -0.893500
C     -3.493300   -1.015000   -1.306900
C     -3.977600    0.410500   -1.457200
C     -3.582300   -0.381100   -2.674700
O     -2.356300   -0.035100   -3.269300
H     -1.246000    0.961600   -1.882800
H      0.262800   -0.349900   -0.701100
H     -0.042700    0.728100    0.670200
H     -1.281700   -1.373500    0.942300
H     -2.429200   -0.029700    0.727800
H     -4.226700   -1.772000   -1.034900
H     -5.031500    0.598800   -1.284100
H     -3.304900    1.207500   -1.163800
H     -4.342500   -0.711200   -3.378600
H     -1.789100   -0.813800   -3.196400
