20
gdb_9771
C      0.018200    1.547800   -0.265700
C     -0.018200    0.037700   -0.032600
C     -1.434000   -0.538100    0.075900
C     -1.428300   -2.060200    0.227900
O     -2.089200    0.078900    1.179900
C     -3.440800    0.285800    0.805800
C     -3.328900    0.569700   -0.692400
O     -2.204300   -0.202900   -1.087500
H      1.050100    1.905600   -0.326800
H     -0.485100    1.805900   -1.201700
H     -0.478500    2.078200    0.550900
H      0.491100   -0.485300   -0.849900
H      0.515200   -0.219400    0.889800
H     -0.828100   -2.355700    1.092800
H     -2.447100   -2.432400    0.363700
H     -1.011200   -2.526600   -0.668700
H     -4.053100   -0.607300    1.000700
H     -3.838500    1.120500    1.388100
H     -4.205200    0.247900   -1.263800
H     -3.152200    1.637300   -0.883500
