19
gdb_6575
C      0.058700    1.536800   -0.039000
C     -0.047900    0.045400    0.064600
C     -1.348800   -0.774100    0.022200
C     -0.700900   -1.784800    1.041500
C     -1.398200   -1.844000    2.393700
O     -0.434500   -3.086100    0.537300
C      0.574100   -0.930200    1.028500
N      1.086700   -0.784300   -0.328200
H      1.078900    1.860800    0.181800
H     -0.189900    1.877100   -1.051500
H     -0.627100    2.032200    0.656900
H     -2.214500   -0.253000    0.441400
H     -1.616800   -1.187300   -0.956300
H     -2.387800   -2.308500    2.303500
H     -0.804600   -2.435800    3.097400
H     -1.537200   -0.842400    2.812200
H     -1.274200   -3.549000    0.443400
H      1.249400   -0.780300    1.865000
H      0.826500   -1.582000   -0.906100
