14
gdb_16801
N      0.079800    1.345700    0.088000
C     -0.028600   -0.008800    0.039600
C     -1.147400   -0.778900   -0.017000
C     -0.796700   -2.199100    0.009000
O     -1.529800   -3.165000    0.027300
C      0.734000   -2.258900    0.031000
N      1.349600   -1.651400   -1.183300
C      1.206700   -0.863500    0.071800
H      0.959400    1.763400   -0.169000
H     -0.733800    1.901300   -0.124300
H     -2.164800   -0.425800   -0.119400
H      1.235700   -3.078000    0.532000
H      2.312300   -1.987000   -1.242500
H      2.086900   -0.541900    0.618000
