20
gdb_13729
C     -0.060400    1.352100   -0.335900
O     -0.053800    0.041400    0.175000
C     -1.274200   -0.634100   -0.033500
C     -1.143600   -2.045300    0.532100
C     -2.429300   -2.821200    0.388800
O     -2.792100   -3.261500   -0.928800
C     -2.525500   -4.255600    0.067100
C     -1.354600   -5.176500   -0.161000
H      0.920400    1.788900   -0.131800
H     -0.237100    1.367100   -1.423200
H     -0.832900    1.975000    0.143400
H     -2.102200   -0.095300    0.461000
H     -1.516000   -0.682600   -1.107800
H     -0.320100   -2.550200    0.021400
H     -0.878700   -1.977300    1.594500
H     -3.269700   -2.392500    0.941700
H     -3.427000   -4.764300    0.417500
H     -0.472800   -4.638100   -0.512800
H     -1.098300   -5.703600    0.764600
H     -1.611800   -5.929600   -0.913300
