13
gdb_4087
O     -0.052100    1.320900    0.008600
N      0.012700   -0.056800    0.004100
C     -1.128400   -0.631000    0.011300
C     -1.228000   -2.140700    0.007700
C     -2.717300   -2.372800    0.018600
C     -3.425200   -1.236200    0.027400
C     -2.530000   -0.052800    0.023900
O     -2.852800    1.113000    0.029800
H      0.879600    1.570200    0.002000
H     -0.752600   -2.585400   -0.875300
H     -0.739000   -2.590500    0.880800
H     -3.137000   -3.372600    0.018900
H     -4.502900   -1.137400    0.036000
