13
gdb_5428
N      0.093700    1.385700    0.158700
C     -0.005300    0.007500    0.040600
C     -1.082400   -0.874300    0.013100
C     -2.484800   -0.506100   -0.006800
O     -3.432100   -1.259300   -0.025700
N     -0.613800   -2.183800   -0.017000
C      0.679500   -2.097000   -0.017100
N      1.110700   -0.781900    0.017300
H      0.729500    1.818400   -0.500600
H     -0.805400    1.846300    0.127300
H     -2.648400    0.602300   -0.010100
H      1.379900   -2.918500   -0.049900
H      2.061000   -0.458700    0.101300
