16
gdb_9250
C      0.028800    1.402400    0.062700
O     -0.087000   -0.001200   -0.039300
C      0.626900   -0.564200   -1.130500
C      2.130700   -0.712700   -0.836400
C      0.030800   -1.862200   -1.439800
C     -0.422200   -2.944300   -1.725900
C     -0.999300   -4.228300   -2.027600
O     -0.662600   -4.931400   -2.952700
H      1.051200    1.728200    0.301000
H     -0.288600    1.903200   -0.865000
H     -0.631900    1.713500    0.874700
H      0.502700    0.078700   -2.019500
H      2.579400    0.266100   -0.648900
H      2.276500   -1.344000    0.043200
H      2.641700   -1.168000   -1.688600
H     -1.801900   -4.536300   -1.327000
