13
gdb_533
O     -0.058900    1.438600    0.010200
C      0.025200    0.025300    0.001900
C     -1.399800   -0.514600    0.012600
C     -1.425200   -2.053800    0.004700
C     -2.783200   -2.592800    0.014500
N     -3.861200   -3.008600    0.022700
H      0.833200    1.797600    0.003400
H      0.555900   -0.342000   -0.892500
H      0.572800   -0.351400    0.882000
H     -1.918600   -0.137700    0.899300
H     -1.935300   -0.128400   -0.860000
H     -0.908300   -2.441500   -0.881600
H     -0.891600   -2.450800    0.876800
