11
gdb_131
C      0.093500    1.411000    0.058700
O      0.067000    0.002000    0.046400
C      0.450000   -0.548400   -1.185500
C      0.380800   -2.061600   -1.071000
O      0.651500   -2.811400   -1.970400
H      1.103500    1.800100   -0.143300
H     -0.594900    1.836700   -0.687800
H     -0.218800    1.733500    1.054500
H     -0.209800   -0.224300   -2.009200
H      1.477700   -0.260800   -1.468200
H      0.053400   -2.416200   -0.068800
