16
gdb_18464
O      0.099600    1.275200    0.343000
C      0.065300   -0.032000   -0.204300
C     -1.320600   -0.639900   -0.113100
C     -1.661000   -2.087700   -0.106000
C     -0.596800   -2.930300    0.616800
C     -0.881900   -2.075200    1.880400
O     -0.544000   -2.174000    3.026200
C     -1.904400   -1.233000    1.174300
H     -0.120500    1.203100    1.278200
H      0.345900    0.080400   -1.257300
H      0.817800   -0.680600    0.264400
H     -2.065000   -0.025100   -0.615700
H     -2.429900   -2.500300   -0.746100
H     -0.921600   -3.958900    0.801500
H      0.417600   -2.948400    0.211200
H     -2.820800   -0.845500    1.602400
