11
gdb_9993
O      0.017100    0.011700    0.056200
C      0.050800    1.197400    0.112900
O      1.110100    1.912400   -0.357200
C      1.053600    3.338200   -0.222100
C      2.152100    3.820200    0.608200
C      3.040600    4.223700    1.305000
C      1.083800    3.942100   -1.568300
N      1.083600    4.429700   -2.614300
H     -0.744100    1.839100    0.539600
H      0.096500    3.623000    0.241700
H      3.834200    4.577800    1.917400
