14
gdb_20749
C     -0.278600    1.487300   -0.006500
C      0.027900    0.016400   -0.006000
N      0.116700   -0.547000   -1.162300
O      0.401100   -1.915600   -1.196100
C      0.590800   -2.692000   -0.063400
N      0.846800   -3.932400   -0.161500
C      0.480100   -2.009500    1.212200
C      0.207600   -0.697700    1.244900
H      0.518900    2.047000    0.494900
H     -0.379600    1.850700   -1.029700
H     -1.208600    1.687000    0.537500
H      0.881900   -4.216900   -1.141900
H      0.628300   -2.615800    2.097100
H      0.117000   -0.152200    2.177800
