22
gdb_6894
C     -0.032300    1.519400   -0.282700
C      0.005000    0.050000    0.158100
C     -1.362000   -0.602600    0.098900
C     -1.818500   -1.353700   -1.140200
O     -0.915000   -1.574700   -2.188100
C     -1.579300   -2.111700    0.141100
C     -0.390000   -3.050200    0.228500
C     -2.805300   -2.603400    0.889100
H      0.959900    1.978000   -0.223900
H     -0.384000    1.616500   -1.316300
H     -0.709600    2.106400    0.347400
H      0.707300   -0.498900   -0.475800
H      0.398800   -0.010400    1.180700
H     -2.139100   -0.020800    0.593200
H     -2.853100   -1.230200   -1.463500
H     -0.806800   -0.746800   -2.667800
H      0.416600   -2.757300   -0.443600
H      0.002800   -3.089000    1.251200
H     -0.691600   -4.067400   -0.047100
H     -3.126700   -3.583700    0.517400
H     -2.596100   -2.706400    1.960800
H     -3.648200   -1.913000    0.782300
