17
gdb_20136
C      1.190300   -0.924900   -0.410400
C     -0.011300   -0.239600   -0.963500
N      0.534800    0.142700    0.338500
C     -0.176400   -0.220000    1.542100
C     -1.369800    0.696400    1.990200
C     -2.204500   -0.575000    2.177900
O     -2.311500   -1.200800    0.896500
C     -1.127100   -1.444100    1.670300
H      1.059700   -1.949700   -0.066200
H      2.183600   -0.696900   -0.787100
H      0.105900    0.508000   -1.743400
H     -0.943500   -0.792700   -0.988100
H      0.559800   -0.278200    2.352000
H     -1.161500    1.252200    2.906200
H     -1.755400    1.372600    1.224600
H     -2.985700   -0.787300    2.897800
H     -0.895400   -2.479000    1.897300
