12
gdb_5352
N      0.035900   -1.147200   -0.004000
C     -0.009000    0.008400    0.003300
C     -0.016800    1.449400    0.010700
N     -1.216900    2.046300    0.029900
C     -1.230800    3.377500    0.037000
C     -0.078800    4.164600    0.025600
C      1.158500    3.531400    0.005800
C      1.197300    2.142100   -0.001900
H     -2.213600    3.841500    0.052600
H     -0.157600    5.245700    0.032300
H      2.078400    4.105600   -0.003500
H      2.133400    1.597400   -0.017200
