18
gdb_19934
C      0.266000    1.625800    0.258100
C      1.364100    0.655000   -0.079400
O      2.174900    0.166800    0.958200
C      1.400900   -0.629000    1.846300
C      0.829400    0.059100    3.120200
C     -0.616900   -0.250000    2.629200
C     -0.045800   -0.771000    1.275600
C     -0.046800    0.149000    0.064600
H      0.238900    2.052700    1.254000
H     -0.064400    2.301000   -0.524800
H      1.893100    0.716000   -1.024100
H      1.956100   -1.550200    2.047500
H      1.117500   -0.403700    4.067200
H      1.081300    1.120800    3.166900
H     -1.111600   -1.030900    3.211400
H     -1.295900    0.602400    2.555100
H     -0.363400   -1.775500    0.988200
H     -0.632000   -0.139800   -0.800400
