20
gdb_16959
C     -0.266000    1.558500   -0.013100
C      0.029600    0.060000   -0.002800
C      0.796800   -0.484200   -1.251300
C      1.925000   -1.302200   -0.580700
C      3.016300   -0.346500   -0.048600
C      2.295600    0.255700    1.195900
C      0.936200   -0.477000    1.135400
O      1.305000   -1.768300    0.629000
H      0.636200    2.154300   -0.184700
H     -0.974900    1.806700   -0.809700
H     -0.709100    1.885800    0.934300
H     -0.920500   -0.477300    0.083800
H      0.159000   -1.120500   -1.869500
H      1.186900    0.317300   -1.886300
H      2.290700   -2.154700   -1.153700
H      3.910500   -0.903600    0.240400
H      3.310100    0.406300   -0.784800
H      2.817800   -0.003200    2.119800
H      2.205800    1.343500    1.160900
H      0.432700   -0.592000    2.096600
