20
gdb_15136
O     -0.358800    0.101200   -0.147000
C     -0.036800    1.252900   -0.007300
C      1.356700    1.799700   -0.209500
C      1.382200    2.929000   -1.254500
C      2.767100    3.573000   -1.403900
C      2.797300    4.675600   -2.440800
C      2.384700    6.080300   -2.074600
C      3.832000    5.768600   -2.370100
H     -0.789300    2.024200    0.285700
H      1.698500    2.199100    0.757200
H      2.019400    0.975100   -0.488900
H      1.058400    2.530000   -2.224300
H      0.651800    3.701400   -0.981000
H      3.084600    3.979500   -0.433800
H      3.501200    2.798700   -1.664800
H      2.523000    4.351500   -3.442300
H      1.824300    6.664200   -2.796300
H      2.111800    6.274400   -1.041900
H      4.526600    5.754300   -1.536300
H      4.260400    6.136700   -3.295700
