22
gdb_13288
O     -0.083500    1.465000   -0.117300
C      0.022400    0.058600    0.050300
C     -1.377600   -0.534300   -0.032600
C     -1.395000   -2.058000    0.130200
C     -2.792800   -2.655700    0.040100
C     -3.539700   -2.651200   -1.326800
C     -4.082100   -4.066700   -0.991800
C     -2.958300   -4.201700    0.070700
H      0.799700    1.841200   -0.063400
H      0.662000   -0.388000   -0.729200
H      0.475500   -0.193400    1.023600
H     -1.999000   -0.065600    0.740600
H     -1.816200   -0.252100   -0.997400
H     -0.759800   -2.518500   -0.640300
H     -0.947300   -2.330300    1.096800
H     -3.434300   -2.203300    0.806900
H     -4.264200   -1.855300   -1.515800
H     -2.831300   -2.679800   -2.162300
H     -5.072600   -4.021400   -0.529800
H     -4.111400   -4.803800   -1.797700
H     -2.074100   -4.700800   -0.340600
H     -3.206300   -4.671100    1.026300
