14
gdb_16322
C     -0.304500    1.345200   -0.031600
O      0.127100   -0.008000    0.116300
C      0.716400   -0.513600   -1.001000
C     -0.065500   -1.025200   -2.230900
C      0.855800   -1.928300   -1.486300
O      2.216400   -1.673900   -1.941200
C      2.176400   -0.388900   -1.403100
O      3.063900    0.392900   -1.316600
H      0.543200    2.007600   -0.240700
H     -1.043100    1.436600   -0.838600
H     -0.763400    1.628900    0.916600
H     -1.123400   -1.153400   -2.018200
H      0.184900   -0.713600   -3.239800
H      0.654600   -2.878600   -1.014400
