13
gdb_21141
C     -0.092200    1.369800    0.074600
N     -0.174000   -0.067500   -0.137600
C      0.500600   -0.582000   -1.050700
O      1.351800   -0.014000   -1.947800
N      1.931500   -1.050400   -2.759600
C      1.351500   -2.115800   -2.327900
N      1.477000   -3.376800   -2.823900
O      0.482500   -1.944000   -1.309700
H      0.825000    1.824600   -0.318400
H     -0.948500    1.866400   -0.397400
H     -0.152200    1.570600    1.148000
H      2.264100   -3.502300   -3.443200
H      1.354100   -4.116300   -2.148000
