15
gdb_4474
C      0.164900    1.471600    0.068300
C     -0.032200    0.006100   -0.014800
C     -1.119800   -0.793600   -0.157300
O     -2.402800   -0.339600   -0.258000
C     -0.674600   -2.163000   -0.161300
C      0.679600   -2.090900   -0.020200
N      1.689800   -3.043400   -0.031400
O      1.092500   -0.811800    0.072600
H      0.824700    1.848000   -0.723800
H     -0.805700    1.962200   -0.039500
H      0.595900    1.784100    1.028400
H     -2.975900   -1.084400   -0.458100
H     -1.275600   -3.054000   -0.255400
H      1.376600   -3.952500    0.279600
H      2.501800   -2.745700    0.494900
