17
gdb_17044
C     -0.144600    1.534800    0.052100
C      0.142400    0.035400   -0.086900
C      0.810400   -0.544300    1.153600
C     -0.061800   -0.850000    2.416800
N     -0.635000   -2.028200    1.629100
C      0.863500   -2.095600    1.328100
C      1.047700   -1.839500    2.841200
O      1.581200   -2.287700    3.807800
H      0.771700    2.102500    0.249800
H     -0.591600    1.934200   -0.863200
H     -0.840600    1.731800    0.874400
H     -0.781400   -0.510000   -0.293400
H      0.809000   -0.129800   -0.943000
H      1.753000   -0.034900    1.377000
H     -0.695100   -0.182600    2.998300
H     -0.917800   -2.786000    2.256800
H      1.284700   -2.847200    0.662700
