16
gdb_19511
O      0.075400   -0.087700   -0.357100
C      0.028000    1.045500    0.062400
C      1.217600    1.938000    0.087200
C      1.158200    3.442900   -0.173300
C     -0.181900    4.144500   -0.035100
O     -0.725200    3.709000    1.208600
C      0.347000    3.380300    2.088300
C      1.499800    2.949400    1.197900
H     -0.913500    1.477800    0.452500
H      2.100200    1.445900   -0.309700
H      1.900100    3.864500   -0.840700
H     -0.023000    5.234700   -0.040200
H     -0.911500    3.901100   -0.813700
H      0.655500    4.254300    2.683800
H     -0.017700    2.609700    2.774500
H      2.506900    2.987800    1.595200
