16
gdb_17209
C     -0.271000    1.339900    0.113700
C      1.173300    0.878100   -0.042600
C      0.048000   -0.103600   -0.043400
O     -0.125000   -1.063700    1.016100
C     -0.489000   -2.085400    0.068500
C     -1.988600   -2.106100   -0.268500
O     -1.800100   -1.141400   -1.338000
C     -0.379600   -1.097200   -1.111100
H     -0.581400    1.666200    1.100400
H     -0.755600    1.852400   -0.710400
H      1.688300    1.076300   -0.977300
H      1.802800    0.901500    0.840400
H      0.054100   -3.019100    0.216100
H     -2.365300   -3.059100   -0.660400
H     -2.644600   -1.738100    0.527100
H      0.206500   -1.192200   -2.026700
