15
gdb_4174
O     -0.122100    1.326800    0.059500
N      0.026000   -0.064400    0.200600
C     -1.081100   -0.652400    0.044900
C     -2.524600   -0.315900   -0.248300
O     -2.850700   -1.731100   -0.192500
C     -1.486000   -2.077700    0.087100
C     -0.821900   -3.301100   -0.464300
C     -1.095700   -3.179400    1.022900
H      0.776700    1.643900    0.199100
H     -3.043400    0.264700    0.522900
H     -2.719900    0.120900   -1.234200
H     -1.453200   -3.972700   -1.036000
H      0.198000   -3.204400   -0.820300
H     -0.265400   -2.998400    1.696700
H     -1.907500   -3.770700    1.432300
