8
gdb_116
C     -0.017900    1.469600    0.010100
C      0.002100    0.020200    0.002000
C      0.018500   -1.187300   -0.004600
C      0.036700   -2.552200   -0.012000
N      0.052000   -3.713800   -0.018200
H      1.000100    1.873100    0.002600
H     -0.543400    1.856800   -0.869100
H     -0.526500    1.846900    0.903500
