23
gdb_15427
C     -5.052600    0.035900   -0.737400
C     -4.198400   -1.196000   -0.427400
C     -2.775300   -1.098000   -0.995300
C     -1.938400   -2.311100   -0.638300
C     -1.848500   -3.492100   -1.546700
N     -0.677900   -2.657600   -1.294800
C     -0.168600   -1.843200   -2.393700
C      0.916600   -2.605400   -3.151100
H     -6.059000   -0.060500   -0.318200
H     -4.603400    0.944100   -0.320500
H     -5.155200    0.185200   -1.818100
H     -4.143500   -1.340600    0.659600
H     -4.683600   -2.094900   -0.828200
H     -2.829400   -0.971000   -2.082100
H     -2.292300   -0.192700   -0.601000
H     -1.908800   -2.506500    0.434600
H     -1.812900   -4.506500   -1.157100
H     -2.337400   -3.398700   -2.517500
H     -0.954800   -1.531700   -3.101700
H      0.252600   -0.926600   -1.962700
H      1.333600   -1.990300   -3.954800
H      1.725500   -2.894400   -2.474400
H      0.510200   -3.518200   -3.599100
