15
gdb_2285
O     -0.630800    0.215700   -0.268400
C     -0.327600    1.364700   -0.152200
O      0.928800    1.766200    0.114600
C      1.194700    3.159800    0.235700
C      1.941200    3.602700    1.511900
C      2.783500    4.556300    0.617200
C      2.359500    3.708000   -0.615700
H     -1.036200    2.211300   -0.249800
H      0.268900    3.727100    0.081800
H      1.352800    4.028400    2.327300
H      2.543000    2.775400    1.896900
H      2.365300    5.565600    0.584900
H      3.850700    4.627800    0.830500
H      3.077400    2.909900   -0.821700
H      2.114600    4.220200   -1.548400
