13
gdb_10667
C     -0.752000    1.150700    0.140000
C      0.368700    0.169000   -0.107200
O      1.333100    0.048500    0.604300
C      0.251200   -0.698900   -1.356800
C     -0.965300   -1.529200   -1.565900
O     -0.753700   -0.343900   -2.311200
C      1.506200   -1.173900   -1.908500
N      2.497100   -1.551100   -2.365600
H     -0.755500    1.904800   -0.654300
H     -1.734000    0.669300    0.114000
H     -0.595300    1.628500    1.107000
H     -0.860300   -2.462100   -2.114800
H     -1.760700   -1.493600   -0.824200
