13
gdb_12462
O     -0.017500    0.110300   -0.705700
C     -0.067500    1.034800    0.040200
O     -1.131500    1.837100    0.122600
C     -1.290400    2.754400    1.216500
C     -0.358300    3.947300    1.094500
N      1.044600    3.663300    1.314100
C      1.537800    2.514800    1.228800
O      0.990000    1.283700    0.896700
H     -2.332800    3.073000    1.152400
H     -1.142000    2.229500    2.166200
H     -0.479400    4.404700    0.104500
H     -0.660800    4.707900    1.824500
H      2.587300    2.345300    1.457000
