18
gdb_13943
O      0.348400    0.994400   -0.611900
C      0.119900   -0.168700    0.145000
C     -0.086500   -0.064000    1.681000
C     -1.250100   -1.082500    1.530900
C     -1.305600   -0.744500    0.021200
C     -2.435400    0.159200   -0.520500
O     -2.798300   -0.820700   -1.516700
C     -1.751900   -1.711300   -1.084500
H      1.264700    1.263400   -0.494700
H      0.858600   -0.950200   -0.093400
H      0.749800   -0.322500    2.334700
H     -0.454800    0.932300    1.941300
H     -0.925600   -2.112900    1.706400
H     -2.158700   -0.900900    2.109700
H     -3.257200    0.353700    0.181700
H     -2.104000    1.100700   -0.970600
H     -1.009600   -1.891000   -1.874600
H     -2.145800   -2.676900   -0.738600
