14
gdb_3313
O     -0.724100    0.951700   -0.371900
C      0.244600    0.948300    0.346600
C      1.407000    1.895800    0.221600
C      1.367200    3.025200   -0.833200
N      1.503200    4.099000    0.220100
C      0.318800    3.960600    1.084300
C      1.439400    3.017600    1.279500
H      0.318600    0.239900    1.204400
H      2.341900    1.327400    0.213100
H      2.232600    3.039700   -1.496800
H      0.448300    3.091400   -1.421200
H      0.222600    4.769600    1.801500
H     -0.617400    3.616100    0.650700
H      2.079900    3.031000    2.155000
