12
gdb_47
C     -0.025400    1.540300   -0.042200
C      1.525600    1.504200    0.041200
C      1.421500    0.061500    0.608400
C     -0.026400   -0.010700    0.049400
H     -0.465900    1.996400    0.849600
H     -0.479000    2.000300   -0.923700
H      1.982500    1.513800   -0.953000
H      2.021900    2.259900    0.655200
H      2.142900   -0.679600    0.255300
H      1.431100    0.057500    1.702600
H     -0.790500   -0.485300    0.670000
H     -0.052300   -0.472400   -0.942400
