18
gdb_12815
C      0.010600    1.480000   -0.058400
C     -0.017400   -0.022200    0.047100
C     -0.874500   -0.697700    1.083600
C      0.645600   -0.730700    1.203500
C      1.402200   -2.014700    0.883000
O      1.688000   -2.139600   -0.508400
C      0.546800   -1.919600   -1.278900
O      0.111200   -0.580000   -1.240500
H      0.955300    1.814500   -0.498000
H     -0.805800    1.831800   -0.697600
H     -0.100100    1.939700    0.927300
H     -1.433800   -0.071400    1.770100
H     -1.371800   -1.627400    0.825300
H      1.092600   -0.107200    1.971100
H      2.373000   -2.021200    1.383900
H      0.842300   -2.900900    1.222300
H      0.807700   -2.121300   -2.319700
H     -0.266600   -2.599600   -0.961800
