10
gdb_21514
N     -0.062800    1.335800    0.008100
C      0.131900    0.004500    0.000700
O      1.158200   -0.608200   -0.010700
N     -1.156500   -0.707000    0.008600
N     -2.348500   -0.111400    0.020500
N     -3.209700   -1.069700    0.024100
N     -2.544800   -2.255400    0.014100
N     -1.274000   -2.029800    0.004300
H      0.751200    1.926500    0.002900
H     -0.987400    1.734400    0.016800
