22
gdb_10721
C      1.419800   -1.141900   -1.073800
C      0.372800   -0.404700   -0.220300
C     -1.040800   -0.764900   -0.696500
C      0.620300   -0.637300    1.278500
C      1.775800    0.166400    1.837700
O      1.439500    1.548600    1.767400
C     -0.509400   -0.882700    2.252600
C      0.421800   -2.009100    1.881800
H      1.308800   -2.228100   -0.978800
H      1.306600   -0.886700   -2.132700
H      2.443700   -0.887700   -0.783100
H      0.504900    0.672300   -0.379600
H     -1.280200   -1.818700   -0.510600
H     -1.803500   -0.151700   -0.208900
H     -1.125700   -0.600900   -1.775600
H      1.962800   -0.138700    2.879600
H      2.696300   -0.038100    1.269300
H      2.229500    2.059400    1.966400
H     -0.419900   -0.442700    3.240100
H     -1.525800   -0.926200    1.882000
H      0.032200   -2.791800    1.239600
H      1.136200   -2.362500    2.618500
