17
gdb_20211
C     -0.037900    1.537300   -0.209700
O      1.229500    2.058400    0.183800
C      2.004000    1.039900    0.830900
C      1.752600    1.088400    2.345100
C      0.361000    0.429800    2.465200
N      0.251500   -0.529000    1.336600
C      0.016600    0.036900   -0.010100
C      1.388600   -0.302800    0.425800
H     -0.840200    2.015900    0.371000
H     -0.211700    1.768900   -1.268700
H      3.049400    1.177100    0.544800
H      2.504400    0.485500    2.867300
H      1.796000    2.108400    2.733800
H      0.243700   -0.129900    3.396700
H     -0.444700    1.170900    2.428300
H     -0.576500   -0.593300   -0.666300
H      1.979000   -1.146900    0.086900
