16
gdb_4026
C     -0.022500    1.636600    0.007400
C     -0.036900    0.096500    0.045600
C     -1.434900   -0.451200    0.012600
N     -2.124200   -0.713600   -1.033300
O     -1.442200   -0.440800   -2.215300
C     -2.127200   -0.690400    1.336700
N     -3.380200   -1.203100    1.257800
O     -1.565000   -0.426400    2.385800
H      1.006800    2.005800    0.036100
H     -0.494900    2.010400   -0.905100
H     -0.554500    2.046500    0.870200
H      0.517200   -0.302000   -0.807800
H      0.432300   -0.246700    0.969700
H     -2.075400   -0.707500   -2.891200
H     -3.804800   -1.362200    0.360300
H     -3.898600   -1.341900    2.107800
