18
gdb_8534
C     -0.167400    1.585600   -0.016800
C     -0.027900    0.071100   -0.010800
C      1.199100   -0.589400   -0.683600
C      2.137000   -0.314500    0.540700
C      2.596100   -1.785100    0.644400
C      1.104700   -1.848700    0.263600
O      0.278700   -2.948000    0.123300
C      0.723200   -0.625700    1.150000
H      0.773500    2.083300    0.240000
H     -0.476600    1.947800   -1.003800
H     -0.924800    1.913300    0.704300
H     -0.979100   -0.410200   -0.265200
H      1.502400   -0.589400   -1.733400
H      2.726500    0.582900    0.708100
H      3.318600   -2.127200   -0.105200
H      2.865900   -2.149300    1.641000
H      0.601400   -3.479800   -0.612300
H      0.481100   -0.664500    2.213900
