18
gdb_6316
C     -0.047400    1.738200   -0.242500
C      0.045000    0.226500    0.027900
C     -1.315700   -0.462900    0.109000
C     -2.040800   -0.231400    1.428100
C     -3.472800   -0.728000    1.498100
O     -1.504700    0.308600    2.370400
C      0.960500   -0.439100   -0.978900
O      0.725600   -1.463600   -1.568500
H      0.947500    2.190500   -0.310600
H     -0.575000    1.941200   -1.181000
H     -0.584200    2.229700    0.571700
H      0.543400    0.108900    1.002700
H     -1.967100   -0.153600   -0.718800
H     -1.191800   -1.545500   -0.026000
H     -3.539100   -1.772400    1.175100
H     -3.853700   -0.625300    2.514700
H     -4.100800   -0.145000    0.814200
H      1.921900    0.102300   -1.139900
