16
gdb_11709
C     -0.139900    1.536200    0.013800
C      0.108500    0.039600    0.052300
N      1.223300   -0.452900   -0.843100
C      1.774900   -1.235700    0.289400
C      2.258900   -0.263800    1.330900
C      0.791500   -0.594400    1.275000
C      2.213400   -2.584100    0.162500
N      2.558600   -3.682600    0.038000
H      0.771100    2.094700    0.244400
H     -0.479800    1.842700   -0.980700
H     -0.913200    1.815400    0.737500
H     -0.820700   -0.503400   -0.155500
H      0.864000   -1.062600   -1.570900
H      2.786700   -0.698800    2.172500
H      2.640100    0.690100    0.980000
H      0.278500   -1.047300    2.112900
