19
gdb_8544
C      0.017000    1.512600    0.023500
C      0.019400    0.003900    0.009800
C      0.475300   -0.723800   -1.277300
C     -0.718500   -1.676500   -1.084500
C     -0.500000   -2.775800   -0.027900
C     -0.767300   -1.696100    1.037600
C      0.415900   -0.747700    1.302700
N     -1.332100   -0.744700   -0.028300
H      1.043600    1.898700    0.049800
H     -0.474200    1.911400   -0.869900
H     -0.513500    1.895300    0.901500
H      0.347200   -0.088500   -2.158500
H      1.481200   -1.154500   -1.299100
H     -1.314800   -1.926700   -1.964500
H     -1.301100   -3.519300   -0.053300
H      0.463400   -3.295100   -0.010600
H     -1.403400   -1.962400    1.884400
H      1.420000   -1.179100    1.362900
H      0.247100   -0.128700    2.188700
