15
gdb_10127
O      0.102300    1.403700    0.186700
C      0.060300    0.014500   -0.046300
C     -1.379200   -0.504100   -0.001500
O     -1.838400   -0.263000    1.315500
C     -3.048100   -0.762600    1.673600
N     -3.498000   -0.511300    2.821800
C     -2.233600    0.203100   -1.051800
O     -3.294300    0.717200   -0.826500
H     -0.336000    1.560200    1.032100
H      0.483100   -0.158700   -1.041200
H      0.658900   -0.551400    0.681500
H     -1.385200   -1.582300   -0.238600
H     -3.515300   -1.380100    0.898700
H     -4.398400   -0.967300    2.952300
H     -1.791100    0.182300   -2.072800
