17
gdb_8127
C     -0.314600    1.534500    0.083900
C      0.069600    0.077800   -0.003700
C     -0.685400   -0.965500    0.807800
C      0.755500   -0.663100    1.110500
O      1.708500   -1.564400    0.581100
C      1.676700   -1.537700   -0.791900
N      2.338400   -2.312100   -1.535000
C      0.735700   -0.441700   -1.268700
H      0.534400    2.183400   -0.159400
H     -1.126800    1.772200   -0.612400
H     -0.658100    1.794600    1.090000
H     -1.431800   -0.601300    1.506100
H     -0.913700   -1.927400    0.358900
H      1.078300   -0.219500    2.044500
H      2.894200   -2.959600   -0.973800
H      0.042800   -0.836400   -2.016400
H      1.320600    0.347000   -1.755100
