18
gdb_13172
N      0.006300    1.470500    0.122300
C     -0.077100    0.013200   -0.025200
C     -1.491200   -0.396500    0.015300
N     -2.594800   -0.738400    0.003100
C      0.596400   -0.569900   -1.277500
C      2.142000   -0.436100   -1.389500
C      2.178900   -1.871700   -1.982000
C      0.756400   -2.110500   -1.407200
H      0.985700    1.741100    0.131500
H     -0.414100    1.921700   -0.686000
H      0.405900   -0.427200    0.858100
H      0.106500   -0.156500   -2.166200
H      2.542100    0.379400   -1.996200
H      2.612200   -0.397400   -0.400100
H      2.177900   -1.857400   -3.075200
H      2.978700   -2.534400   -1.645400
H      0.791600   -2.591000   -0.423800
H      0.031800   -2.642900   -2.025400
