15
gdb_10437
C      0.339700   -1.256900   -0.113100
C      0.194500   -0.064200   -0.068500
C      0.007500    1.361000   -0.039600
C     -1.098100    1.886900   -0.960000
C     -2.436300    1.452000   -0.554800
N     -3.493600    1.120000   -0.228900
C      0.249500    2.096900    1.268300
C      1.234100    2.243000    0.145100
H      0.461300   -2.311500   -0.141800
H     -1.081200    2.982200   -0.966900
H     -0.918000    1.556000   -1.988600
H     -0.408600    2.929500    1.492200
H      0.529900    1.498800    2.126200
H      2.189900    1.740800    0.229500
H      1.260900    3.178800   -0.402900
