18
gdb_19855
C     -0.019100    1.454000   -0.035000
C      1.316700    0.767400    0.040800
C      0.016000   -0.041200    0.093200
C      0.377300   -0.713500   -1.260100
C     -0.341800   -0.297900   -2.511600
C      0.366800    0.582000   -3.224300
C      1.707000    0.927800   -2.603200
C      1.712900    0.105200   -1.293200
H     -0.306200    1.982200    0.868900
H     -0.364700    1.924200   -0.951100
H      2.009900    0.980500    0.846300
H     -0.431100   -0.554600    0.936000
H      0.497000   -1.796000   -1.159000
H     -1.326400   -0.663500   -2.784300
H      0.039000    1.024100   -4.160500
H      2.536400    0.659100   -3.270200
H      1.801400    2.005900   -2.416500
H      2.606000   -0.512500   -1.186700
