19
gdb_14230
C     -0.082400    1.487100    0.016200
C      0.034000   -0.025700   -0.024100
C      0.850300   -0.592700   -1.177100
C      2.064300   -0.574000   -0.293000
N      1.116300   -0.523600    0.928000
C      0.977500   -2.024900    0.776700
C      1.476100   -1.908200   -0.656300
C      2.009100   -2.974800   -1.565300
H      0.889300    1.959700   -0.158600
H     -0.778400    1.843600   -0.751000
H     -0.450000    1.812500    0.994000
H     -0.943200   -0.484300    0.176900
H      0.789100   -0.386300   -2.239700
H      3.051100   -0.136900   -0.354100
H      1.701300   -2.525900    1.427100
H     -0.028100   -2.413500    0.980300
H      1.210600   -3.642500   -1.909600
H      2.481400   -2.541400   -2.453500
H      2.761100   -3.588800   -1.056600
