12
gdb_401
C     -0.043800    1.507900    0.014000
C      0.004000   -0.008000   -0.032800
C      0.745100   -0.697400   -1.133000
N      1.272700   -0.718300    0.234100
C     -1.166900   -0.661000    0.522400
N     -2.123800   -1.149200    0.948900
H      0.847500    1.926200   -0.463600
H     -0.925000    1.888500   -0.510800
H     -0.085700    1.864200    1.047600
H      0.394400   -1.655900   -1.501600
H      1.213300   -0.058200   -1.877200
H      2.016100   -0.031900    0.342600
