17
gdb_10700
C      0.260400    1.553800   -0.209900
C     -0.049200    0.077700    0.046800
O      0.334900   -0.729800   -1.066200
C      0.701000   -0.469500    1.255000
C      1.086500   -1.918900    1.298200
N      2.112800   -0.896500    1.113700
C      0.402500    0.149600    2.576800
O     -0.513200    0.906000    2.794000
H      1.333400    1.703800   -0.365700
H     -0.269500    1.901200   -1.104500
H     -0.067800    2.165200    0.632800
H     -1.125700   -0.032300    0.243000
H     -0.002900   -0.313600   -1.864500
H      1.117200   -2.437800    2.252600
H      0.780400   -2.513800    0.445100
H      2.334100   -0.845400    0.120100
H      1.107200   -0.168100    3.376200
