18
gdb_15366
C     -0.163400    1.447800   -0.515900
C      0.061000    0.141500    0.256900
C     -1.241800   -0.559500    0.555500
O     -1.898200   -1.230400   -0.529800
C     -1.450700   -2.017800    0.581300
C     -0.382500   -3.055100    0.303300
C     -0.938700   -4.213000   -0.506600
O     -0.817900   -5.372900   -0.209100
H      0.786200    1.948700   -0.724200
H     -0.662300    1.249300   -1.469000
H     -0.791000    2.141900    0.053300
H      0.719900   -0.515500   -0.318300
H      0.567400    0.349900    1.208300
H     -1.928900    0.029900    1.168500
H     -2.265600   -2.384000    1.209700
H      0.428500   -2.607800   -0.282900
H      0.034800   -3.448700    1.235300
H     -1.480800   -3.903700   -1.427200
