19
gdb_11992
C     -0.435600    1.535600    0.344900
C     -0.125300    0.049900    0.232800
C      0.284900   -0.501000   -1.140900
N      1.586000    0.132000   -1.474400
C      1.546700   -1.064300   -0.600700
C      1.231400   -0.559900    0.813900
C      2.231800    0.377800    1.467800
O      0.984200   -1.704200    1.618100
H      0.336100    2.132100   -0.147900
H     -1.396000    1.766700   -0.129700
H     -0.502900    1.854600    1.391000
H     -0.934500   -0.557900    0.648600
H     -0.361400   -0.876200   -1.925500
H      1.849000   -0.186500   -2.406100
H      2.078200   -1.974700   -0.849400
H      2.507600    1.184500    0.785700
H      1.813700    0.825900    2.378100
H      3.134000   -0.176400    1.745800
H      0.699000   -1.397400    2.485500
