18
gdb_14155
O      0.106300    1.188500   -0.301800
C     -0.046400   -0.173000   -0.025900
C     -0.552000   -0.619400    1.337100
C     -1.449600   -0.690300    0.139800
C     -2.663100    0.208600   -0.101900
C     -3.563600   -0.665400   -1.010800
C     -2.610600   -1.782900   -1.461800
O     -1.730700   -1.975800   -0.358700
H      0.834900    1.524000    0.231000
H      0.654600   -0.838800   -0.528900
H     -0.168600   -1.551400    1.738200
H     -0.765400    0.153500    2.068900
H     -3.168500    0.471200    0.830900
H     -2.354900    1.138100   -0.585100
H     -4.390300   -1.091500   -0.435700
H     -3.988500   -0.111800   -1.851500
H     -3.102500   -2.736400   -1.668200
H     -2.045000   -1.478000   -2.356600
