13
gdb_179
C      0.007500    1.475000    0.024800
C     -0.009300   -0.025300    0.018100
C     -0.115900   -0.772200    1.325400
O     -0.121600   -2.166900    1.187600
N      0.060500   -0.753700   -1.025800
O      0.157300   -0.003400   -2.202900
H      0.927200    1.848000   -0.436800
H     -0.824100    1.868100   -0.568600
H     -0.064500    1.867500    1.041700
H      0.722400   -0.453100    1.968800
H     -1.033100   -0.432900    1.837300
H     -0.052500   -2.340500    0.238300
H      0.200300   -0.684900   -2.882100
