19
gdb_12918
C      0.193300    1.303600    0.288500
C      0.051300   -0.176800    0.085700
C     -0.659000   -0.814600   -1.114900
C     -1.348800   -1.753000   -0.097300
N     -0.687100   -1.079700    1.079300
C      0.777100   -1.189800    0.891300
C      1.515300   -2.400500    0.360600
O      2.886300   -2.095900    0.135400
H      0.955100    1.719500   -0.382400
H     -0.749700    1.822700    0.084500
H      0.489400    1.529500    1.316800
H     -1.358700   -0.129100   -1.597600
H     -0.027300   -1.260500   -1.890000
H     -2.427800   -1.601800   -0.029700
H     -1.155500   -2.826800   -0.177300
H      1.288300   -0.773800    1.758500
H      1.509000   -3.195500    1.114200
H      1.048700   -2.807600   -0.545300
H      2.920600   -1.382300   -0.510200
