11
gdb_5660
N     -0.041400    1.354100    0.010300
C      1.287500    1.736300   -0.000800
N      2.141800    0.721000   -0.014700
C      1.305800   -0.341700   -0.012200
C     -0.017800   -0.020400    0.002600
N     -0.808800   -1.143500    0.004200
C      0.087500   -2.091700   -0.009700
O      1.405100   -1.700700   -0.020600
H     -0.837100    1.969000    0.021500
H      1.569800    2.777800    0.002000
H     -0.085800   -3.155600   -0.013800
