16
gdb_18205
N     -0.102400   -1.187600   -0.299700
C     -0.067300   -0.045900   -0.124100
C     -0.004400    1.414100    0.084100
N     -0.569000    1.773600    1.401800
C      0.566300    2.050600    2.310800
C      1.786500    2.378200    1.440300
C      2.496900    1.209500    0.810500
C      1.441600    1.951900    0.033300
H     -0.605300    1.871200   -0.708200
H     -1.105400    2.624400    1.281000
H      0.306100    2.873200    2.981600
H      0.756200    1.169800    2.935400
H      2.333900    3.294800    1.626600
H      3.527400    1.339800    0.498400
H      2.262800    0.210400    1.167200
H      1.728100    2.532400   -0.834800
