14
gdb_10875
O     -0.046100    1.444700   -0.062700
C     -0.040000    0.045800   -0.026500
C     -0.025600   -0.670300    1.383700
C     -1.472900   -0.099600    1.582100
C     -1.461800   -0.596300    0.074100
O     -2.458800   -0.527400   -0.859400
C     -0.732000   -1.810400    0.651200
O     -0.771100   -3.002500    0.582800
H      0.854600    1.753800    0.076200
H      0.628100   -0.379200   -0.784800
H      0.782400   -0.703900    2.106500
H     -2.126000   -0.626000    2.278500
H     -1.517900    0.981400    1.685100
H     -2.800300   -1.418200   -1.001600
