13
gdb_4094
O     -0.062700    1.310400   -0.204500
N      0.018400   -0.063700   -0.141500
C     -1.099300   -0.644200    0.062500
C     -1.227100   -2.138500    0.160900
C     -2.729100   -2.335300   -0.112200
O     -3.366100   -1.084200    0.203600
C     -2.473300   -0.051600    0.228800
O     -2.809000    1.085300    0.380000
H      0.852700    1.563800   -0.372400
H     -0.587600   -2.672000   -0.543800
H     -0.972300   -2.476800    1.171900
H     -2.925200   -2.565900   -1.165000
H     -3.188700   -3.106700    0.507900
