12
gdb_23726
F      0.008800   -0.021900    0.003400
C     -0.025000    1.315700    0.010500
C     -1.210200    1.974200    0.029700
N     -1.209100    3.339700    0.036400
C     -0.068200    4.165700    0.025100
O     -0.185900    5.379600    0.032700
C      1.172900    3.407100    0.004700
C      1.191000    2.046200   -0.002300
H     -2.165800    1.467000    0.040100
H     -2.085300    3.842700    0.050700
H      2.085000    3.990100   -0.004800
H      2.124800    1.493500   -0.017600
