16
gdb_7811
O     -0.088500    1.465500   -0.021400
C     -0.025500    0.051200    0.051400
C     -1.439900   -0.493400   -0.061500
C     -1.399900   -2.011900    0.024300
O     -0.505300   -2.631700   -0.916600
C      0.652000   -2.044800   -1.309400
O      1.476000   -2.700700   -1.884500
C      0.809000   -0.543800   -1.085500
H      0.807400    1.813200    0.041100
H      0.397600   -0.263100    1.020600
H     -2.070400   -0.101700    0.742600
H     -1.875200   -0.169800   -1.014000
H     -1.097800   -2.330100    1.030700
H     -2.379100   -2.449000   -0.183000
H      0.493400   -0.059500   -2.019000
H      1.878400   -0.346700   -0.970800
