18
gdb_13115
C      0.001300    1.515900   -0.051300
C      0.288200    0.027800    0.034500
O      0.424400   -0.475500   -1.292700
C      0.671400   -1.844100   -1.351100
C      0.811600   -2.449000   -2.775200
C      2.050800   -3.275100   -2.315500
C      2.107300   -2.365600   -1.073900
O      2.968200   -2.052100   -0.303400
H      0.824100    2.036500   -0.549000
H     -0.915500    1.699900   -0.618900
H     -0.119100    1.936800    0.951300
H      1.207200   -0.164800    0.602600
H     -0.535500   -0.500000    0.544100
H     -0.052500   -2.416800   -0.742900
H     -0.046700   -3.005000   -3.151700
H      1.082900   -1.666700   -3.486800
H      1.813100   -4.310500   -2.051200
H      2.938300   -3.272100   -2.951300
