14
gdb_2201
C     -0.029100    1.410600   -0.060500
N     -0.010800   -0.027900   -0.003800
C     -1.084200   -1.028700   -0.052700
C      0.023200   -2.117400   -0.006700
O      0.041700   -2.961900   -1.129300
C      1.019600   -0.927800   -0.047700
O      2.216400   -0.807700   -0.131500
H      1.007100    1.756700   -0.053300
H     -0.515600    1.770600   -0.975600
H     -0.552900    1.838700    0.802500
H     -1.770000   -0.996500    0.800200
H     -1.646000   -1.035100   -0.992400
H      0.050200   -2.678300    0.937500
H      0.960500   -3.209700   -1.284300
