16
gdb_13342
O      0.393100   -0.089500   -0.103600
C      0.229600    1.083700    0.056100
O      1.117300    2.007200   -0.345200
C      0.820900    3.407400   -0.099200
C      1.970000    4.070400    0.693700
C      2.777200    4.900700   -0.336000
C      1.868000    4.943000   -1.537700
C      0.805900    4.150600   -1.408800
H     -0.661100    1.525900    0.546500
H     -0.135100    3.452400    0.436900
H      1.547100    4.727900    1.458300
H      2.568500    3.313000    1.203300
H      3.015700    5.901600    0.040600
H      3.736400    4.433600   -0.593300
H      2.089000    5.547000   -2.411100
H      0.032000    3.991400   -2.150200
