18
gdb_9491
C     -0.483400    1.385100    0.021300
C      0.222500    0.050700   -0.063600
O      1.533900    0.135000   -0.664800
C      2.076100   -0.790600    0.291900
C      0.827800   -0.641900    1.211800
C      1.083400    0.292900    2.401200
C      0.173600   -1.868900    1.629400
C     -0.375100   -2.883500    1.970700
H      0.101000    2.121900    0.577000
H     -0.647600    1.773800   -0.988800
H     -1.460400    1.269500    0.502200
H     -0.401100   -0.667300   -0.615400
H      2.198300   -1.797600   -0.126100
H      3.027900   -0.445500    0.710500
H      1.618000    1.189800    2.076800
H      0.146800    0.595800    2.877400
H      1.693800   -0.217400    3.151800
H     -0.856800   -3.781100    2.270300
