18
gdb_8410
C     -0.070000    1.532400    0.033100
C     -0.088200    0.021300    0.085700
C     -1.262800   -0.652100   -0.587800
O      1.195600   -0.608000   -0.166600
C      0.655900   -0.682900    1.134000
C      1.348800   -0.193900    2.403300
O      0.948100   -1.399300    3.093000
C      0.376200   -1.975200    1.897100
H      0.824000    1.932200    0.517200
H     -0.078300    1.878100   -1.006200
H     -0.952800    1.948000    0.530800
H     -1.307300   -0.372900   -1.645900
H     -1.180900   -1.739700   -0.526400
H     -2.205000   -0.345300   -0.120900
H      2.439200   -0.105200    2.313500
H      0.945200    0.709100    2.877700
H     -0.674800   -2.257800    2.034500
H      0.945000   -2.841600    1.535900
