10
gdb_8718
O     -0.032500   -0.045100   -0.001000
C     -0.009700    1.163500    0.004300
C      1.201100    1.948000    0.000200
C      2.224300    2.581400   -0.003200
C     -1.321000    1.985600    0.016400
O     -1.298200    3.194200    0.021900
C     -2.531800    1.201000    0.020400
C     -3.555000    0.567600    0.024000
H      3.128500    3.141300   -0.005400
H     -4.458800    0.007200    0.027900
