17
gdb_19167
O      0.118500    1.364500    0.022500
C      0.040100   -0.034500    0.172100
C     -1.396800   -0.540900    0.123900
C     -2.482900    0.332600    0.584600
O     -2.209800    0.173100   -0.823400
C     -1.550800   -2.033600    0.105600
C     -2.763300   -2.669200   -0.458000
N     -1.479600   -2.753400   -1.181000
H     -0.431300    1.579200   -0.742300
H      0.621300   -0.561700   -0.602200
H      0.486500   -0.284600    1.141000
H     -3.417500   -0.111200    0.919500
H     -2.241600    1.314900    0.981900
H     -1.023200   -2.539900    0.912200
H     -3.120100   -3.607900   -0.044900
H     -3.529900   -2.014600   -0.861200
H     -1.497500   -2.068100   -1.934900
