14
gdb_11627
O     -0.021500   -0.009400    0.004600
C     -0.030800    1.177900    0.011100
C     -0.996100    2.369100    0.026800
C     -0.020500    2.972200    1.091500
C      0.962700    2.383100    0.008700
C     -0.040300    2.984200   -1.049100
C      2.388400    2.408300   -0.004400
C      3.591400    2.407500   -0.015700
H     -2.082200    2.379300    0.036900
H     -0.019700    4.063400    1.137400
H      0.000700    2.519300    2.083800
H     -0.037500    2.542400   -2.046600
H     -0.040300    4.075800   -1.082700
H      4.653400    2.402400   -0.025700
