14
gdb_23737
C     -0.028200    1.529300    0.028700
C     -0.006100    0.026900   -0.015100
C     -0.035500   -0.714200   -1.195800
C     -0.011700   -2.105700   -1.144300
N      0.038800   -2.803400   -0.007500
C      0.067400   -2.108500    1.131400
C      0.046500   -0.722300    1.157500
F      0.077400   -0.085300    2.335300
H      0.863200    1.921100    0.529600
H     -0.071800    1.949600   -0.978300
H     -0.892100    1.893500    0.594300
H     -0.076800   -0.204800   -2.153400
H     -0.034600   -2.685900   -2.063200
H      0.108600   -2.661100    2.066500
