16
gdb_19833
C     -0.034000    1.533500    0.012000
C      1.301600    0.808000    0.001500
C      2.163800    0.755300    1.197000
C      1.840500    0.102500    2.321200
C      0.574500   -0.646900    2.457200
O     -0.667600    0.102000    2.453400
C     -0.357800   -0.687600    1.308900
C     -0.014800    0.033000    0.038300
H     -0.323100    2.028600    0.930800
H     -0.338500    2.024600   -0.905300
H      1.830900    0.832700   -0.946500
H      3.122400    1.263900    1.132000
H      2.526500    0.086800    3.162400
H      0.568700   -1.468300    3.171800
H     -0.986300   -1.569400    1.188600
H     -0.295500   -0.492600   -0.867800
