17
gdb_15538
C      0.430700    1.569200   -0.240900
C      0.000300    0.118500    0.030800
C      0.311100   -0.792400   -1.137600
C      1.334000   -1.610100   -0.901400
C      1.894600   -1.439500    0.488900
C      0.782700   -0.599700    1.188700
C      1.281400    0.285400    2.234800
N      1.677700    0.987000    3.064100
H      1.501800    1.631200   -0.457300
H     -0.108400    1.965900   -1.106800
H      0.218900    2.213200    0.617100
H     -1.069800    0.120300    0.268300
H     -0.225100   -0.712300   -2.076900
H      1.761600   -2.305500   -1.614600
H      2.068900   -2.384800    1.012200
H      2.855200   -0.909600    0.472000
H      0.088700   -1.301900    1.662800
