18
gdb_14461
C     -0.017200    1.494500    0.030900
C      0.019300   -0.006200   -0.040800
C      0.186500   -0.780900   -1.347300
C      0.051600   -2.184100   -0.717600
C      1.137700   -2.162900    0.382600
C      0.627800   -0.894800    1.055400
C     -0.862100   -0.915600    0.786600
O     -1.168900   -2.076200    0.036000
H      0.934000    1.936400   -0.288900
H     -0.806200    1.904300   -0.610500
H     -0.209900    1.838800    1.052600
H     -0.613600   -0.572400   -2.064400
H      1.156300   -0.623800   -1.829500
H      0.002100   -3.046600   -1.378800
H      1.083600   -3.042900    1.029700
H      2.148200   -2.072400   -0.025900
H      1.052900   -0.484000    1.961700
H     -1.638200   -0.596400    1.468300
