16
gdb_10027
C     -0.252100    1.307800   -0.082400
O      0.159800   -0.034300    0.083300
C      0.704900   -0.602100   -1.102100
C      1.317100   -1.886300   -0.748900
C      1.842600   -2.931100   -0.480000
C     -0.294400   -0.761900   -2.171600
C     -1.115700   -0.872100   -3.044500
C     -2.107200   -1.022400   -4.099000
H      0.586700    1.952300   -0.389500
H     -1.054800    1.400600   -0.825900
H     -0.620200    1.643200    0.889300
H      1.503600    0.063100   -1.479500
H      2.298500   -3.859000   -0.237000
H     -1.935000   -1.940700   -4.670800
H     -3.119100   -1.076000   -3.683200
H     -2.077400   -0.181500   -4.800200
