15
gdb_13851
O     -0.185600   -0.027500   -0.398300
C     -0.034900    1.254200   -0.054900
O      1.013100    1.750800    0.259900
C     -1.359800    2.051600   -0.077300
N     -2.470600    1.234300   -0.611900
H     -2.728000    1.516700   -1.548100
H     -1.147000   -0.109800   -0.602200
C     -3.623900    1.295200    0.318300
C     -3.052400    1.965500    1.538000
C     -1.813300    2.392200    1.320800
H     -1.163100    2.958100   -0.666700
H     -4.463800    1.868500   -0.102600
H     -4.006600    0.288800    0.534200
H     -3.612400    2.069800    2.458600
H     -1.159600    2.900000    2.016600
