20
gdb_5980
C     -0.130900    1.578800    0.098100
C      0.041600    0.069000    0.044300
O     -1.250300   -0.507500   -0.037400
C     -1.348300   -1.926900   -0.099900
C     -0.703000   -2.513800   -1.367100
C     -0.817500   -2.617500    1.168200
C     -2.862500   -2.164500   -0.177900
O     -3.367800   -3.253800   -0.245800
H      0.844000    2.071300    0.162100
H     -0.644600    1.938100   -0.798000
H     -0.724400    1.866000    0.970700
H      0.651300   -0.211100   -0.827200
H      0.571600   -0.283200    0.941500
H      0.388600   -2.481000   -1.311300
H     -1.011400   -3.556300   -1.477500
H     -1.024400   -1.959000   -2.253600
H     -1.219600   -2.135700    2.064500
H     -1.130400   -3.664400    1.165000
H      0.274600   -2.584000    1.213800
H     -3.458200   -1.226400   -0.165700
