14
gdb_9996
O      0.011200   -0.087700    0.085400
C      0.011800    1.076900   -0.216200
C      1.239500    1.965000   -0.113900
C      1.351400    2.989800   -1.280400
C      0.266800    4.065500   -1.120600
O     -0.744500    4.101000   -1.766000
C      2.661200    3.626400   -1.296100
C      3.724400    4.186400   -1.282900
H     -0.909900    1.577300   -0.585100
H      1.187200    2.511900    0.838700
H      2.129300    1.333000   -0.071500
H      1.161800    2.481500   -2.232800
H      0.490500    4.811700   -0.326700
H      4.670800    4.669100   -1.288100
