14
gdb_8644
N     -0.052400    1.514300    0.036000
C      0.016200    0.047000    0.004900
C      0.756700   -0.493300   -1.269400
O      0.187300    0.039400   -2.441000
C      0.681400   -0.467200    1.202100
C      1.287200   -0.896000    2.145300
C     -1.372400   -0.475500   -0.071700
N     -2.433700   -0.903700   -0.229600
H      0.851200    1.873500    0.329300
H     -0.214600    1.830200   -0.918600
H      1.789500   -0.137100   -1.222000
H      0.760200   -1.590600   -1.260600
H     -0.661500   -0.394600   -2.590100
H      1.803200   -1.273300    2.994400
