13
gdb_9326
O     -0.017300    1.437500   -0.049400
C     -0.006200    0.027100   -0.073200
C     -1.399600   -0.564200    0.037900
O     -2.118600   -0.135900   -1.151100
C     -3.378200   -0.557400   -1.254800
O     -3.970000   -1.258700   -0.482400
C     -3.979300   -0.037000   -2.489800
N     -4.496600    0.348400   -3.447500
H     -0.502400    1.736400   -0.826100
H      0.485800   -0.366600   -0.975500
H      0.576800   -0.301000    0.793300
H     -1.385500   -1.657500    0.071300
H     -1.927300   -0.184800    0.916900
