18
gdb_16181
O      0.089300    1.396400    0.254800
C      0.092200   -0.000300    0.011800
C     -1.297900   -0.558500   -0.093000
C     -2.126700   -0.954800    1.101800
C     -1.707700   -1.994000    0.070900
C     -2.676000   -2.272600   -1.068500
C     -3.060500   -0.856100   -1.552700
O     -1.977600    0.004100   -1.197400
H     -0.474300    1.786900   -0.422600
H      0.644000   -0.241200   -0.911100
H      0.618100   -0.466200    0.850900
H     -1.621500   -0.982400    2.061200
H     -3.165900   -0.647700    1.155900
H     -0.998600   -2.763300    0.354900
H     -2.160300   -2.830600   -1.857200
H     -3.557600   -2.848900   -0.771800
H     -3.204600   -0.787600   -2.634400
H     -3.986000   -0.516500   -1.068000
