14
gdb_14255
C      0.441000    1.478200   -0.007200
C      0.103400    0.008500    0.081200
O      0.872700   -0.828100   -0.842700
C      1.275300   -1.714700    0.217400
C      0.603100   -0.827500    1.275000
O      1.907100   -0.407000    1.770500
C      2.582000   -1.229700    0.878400
O      3.752700   -1.376900    0.774400
H      1.485100    1.656300    0.257700
H      0.269100    1.835800   -1.026500
H     -0.197700    2.054300    0.670300
H     -0.966600   -0.168400   -0.091200
H      1.122900   -2.773400    0.009200
H     -0.060700   -1.130300    2.080600
