15
gdb_8742
N      0.066500    1.575400   -0.013800
C      0.048400    0.107400   -0.007100
C      0.618000   -0.500700   -1.213800
C      1.140100   -0.973000   -2.189500
C      0.828200   -0.413100    1.251700
N      2.198300    0.067700    1.375900
C      0.070300   -0.064200    2.463400
N     -0.552100    0.190600    3.402100
H      0.889100    1.906300   -0.507200
H     -0.734400    1.931300   -0.523700
H     -0.993800   -0.213900    0.100900
H      1.572600   -1.394000   -3.063900
H      0.858600   -1.507300    1.190500
H      2.721700   -0.201700    0.547600
H      2.196900    1.082200    1.431900
