13
gdb_20607
C     -0.004500    1.540000    0.092400
C      0.015300    0.054900   -0.006100
C      0.001100   -0.802200   -1.095000
N      0.031800   -2.099500   -0.635000
N      0.063600   -2.089100    0.658100
N      0.053900   -0.792900    1.047000
C     -0.037800   -0.459500   -2.465100
C     -0.071200   -0.146600   -3.626900
H      0.887500    1.924700    0.599000
H     -0.035300    1.967200   -0.911700
H     -0.881800    1.898300    0.642100
H      0.075000   -0.575800    2.031100
H     -0.100500    0.116000   -4.655400
