16
gdb_9169
C     -0.032200    1.341000    0.241800
O     -0.040900   -0.062300   -0.049500
C      0.676800   -0.429100   -1.132200
O      1.290400    0.336000   -1.824700
C      0.571000   -1.942600   -1.311600
C      1.307000   -2.459700   -2.452700
C      1.910800   -2.903900   -3.392900
C      2.646700   -3.425800   -4.534800
H      0.986300    1.688900    0.431500
H     -0.447000    1.910600   -0.593700
H     -0.649800    1.463400    1.131600
H      0.909600   -2.405600   -0.375800
H     -0.496500   -2.188100   -1.381400
H      3.405600   -4.151800   -4.222900
H      1.979600   -3.927000   -5.244700
H      3.158900   -2.620400   -5.072300
