20
gdb_8674
C      0.118800    1.561200    0.023800
C      0.007200    0.035600   -0.004400
C     -1.440800   -0.532500    0.017700
C     -1.376000   -2.077400    0.016300
C     -2.209300   -0.052100    1.270900
O     -1.463400   -0.425200    2.419600
C     -2.185800   -0.074200   -1.158700
C     -2.806200    0.297300   -2.119900
H      1.163000    1.867400   -0.092400
H     -0.457900    2.017900   -0.786400
H     -0.237400    1.973200    0.972900
H      0.497000   -0.350700   -0.905200
H      0.535100   -0.387900    0.855300
H     -0.892600   -2.426000    0.931900
H     -2.380200   -2.508400   -0.034200
H     -0.808400   -2.438000   -0.845700
H     -2.349500    1.036200    1.220600
H     -3.206600   -0.516300    1.271100
H     -1.954800   -0.152600    3.199300
H     -3.350200    0.622400   -2.972000
