16
gdb_4903
C      0.173500    1.490300    0.181300
C     -0.091800    0.033800    0.047600
C     -1.221600   -0.722100    0.105400
C     -0.822500   -2.087800   -0.104700
C     -1.690600   -3.311200   -0.133800
O     -1.065200   -4.416600   -0.767100
C      0.525700   -2.048700   -0.276100
O      0.985200   -0.768000   -0.189600
H      0.630600    1.900900   -0.726200
H     -0.762200    2.023000    0.364400
H      0.855600    1.699500    1.013300
H     -2.223000   -0.356000    0.275200
H     -1.916800   -3.651200    0.884200
H     -2.658200   -3.069500   -0.603100
H     -0.831100   -4.136000   -1.658500
H      1.267200   -2.808700   -0.453500
