16
gdb_18353
O      0.392100    1.211300   -0.576700
C      0.084500   -0.090400   -0.093000
C      0.588700   -0.339400    1.314600
C     -0.350400   -0.803000    2.139300
C     -1.670600   -0.977100    1.436800
O     -2.629700    0.071300    1.739800
C     -2.395300    0.693800    0.457500
C     -1.427300   -0.424700    0.013400
H      0.166300    1.842600    0.115100
H      0.570200   -0.759300   -0.813100
H      1.618200   -0.123100    1.581400
H     -0.217700   -1.022700    3.192900
H     -2.119100   -1.968700    1.562500
H     -3.318900    0.773900   -0.126200
H     -1.960200    1.697200    0.553800
H     -1.789600   -1.023300   -0.821200
