13
gdb_2478
O     -0.015800    0.056500   -0.037300
C      0.049000    1.247000   -0.005500
O     -1.043800    2.086400    0.007700
C     -0.409600    3.401600    0.047300
C      0.699600    3.264700   -1.019400
C      1.222100    2.219500    0.029400
C      0.682400    3.208500    1.123100
H     -1.176400    4.171900    0.061300
H      0.404500    2.905700   -2.007200
H      1.344600    4.142000   -1.093100
H      2.218900    1.788700    0.026100
H      1.325700    4.080400    1.253000
H      0.371500    2.798300    2.085800
