14
gdb_14332
O      0.087800    0.046100    0.274900
C     -0.015800    1.213400    0.052400
C     -1.271800    2.084400    0.111000
C     -0.763000    3.499500   -0.068800
O     -0.371300    4.132200    1.170600
C      1.016700    4.190600    0.763300
C      0.720300    3.348600   -0.485300
O      1.056500    1.974300   -0.340000
H     -1.950200    1.771800   -0.689300
H     -1.783500    1.942500    1.064800
H     -1.402200    4.148300   -0.674100
H      1.337000    5.218200    0.552500
H      1.690700    3.729700    1.491900
H      1.071500    3.701400   -1.454800
