18
gdb_13595
C     -0.040200    1.534900   -0.000900
C      0.064900    0.013900    0.064400
C      0.828500   -0.499200    1.272900
O      1.309500    0.268800    2.097800
C      0.937100   -1.963600    1.429400
C      2.205700   -2.525200    2.089600
C      0.956600   -2.496500    2.887300
O      0.772700   -1.644000    3.953700
H      0.951200    1.993800   -0.029500
H     -0.592000    1.844700   -0.892600
H     -0.554400    1.928700    0.879400
H     -0.928900   -0.455300    0.079200
H      0.554300   -0.391900   -0.832300
H      0.450300   -2.572300    0.675700
H      2.576000   -3.469600    1.706300
H      2.963200   -1.787600    2.333600
H      0.424100   -3.429700    3.040600
H      1.105600   -0.771600    3.677500
