17
gdb_19950
O     -0.093700    0.025200    0.760700
C     -0.078900    1.163800    0.372600
C     -1.133400    2.230000   -0.006000
C      0.078200    3.149200   -0.322400
N      0.950200    2.034100    0.069700
C      2.366400    1.936200    0.125800
C      3.001100    0.603100   -0.162300
C      3.147800    1.726100   -1.155500
H     -1.758400    1.961200   -0.859400
H     -1.765400    2.548400    0.824700
H      0.185000    3.446700   -1.371000
H      0.176500    4.033600    0.316700
H      2.832200    2.557800    0.888500
H      3.860500    0.324100    0.436100
H      2.332700   -0.213800   -0.400800
H      2.578300    1.662400   -2.075700
H      4.108500    2.220100   -1.248100
