12
gdb_5661
O     -0.053800    1.355400    0.009900
C      1.257900    1.776100   -0.000500
C      2.148700    0.738200   -0.014600
C      1.313800   -0.413600   -0.012800
C      0.012600    0.002500    0.002000
C     -0.822300   -1.149300    0.003900
C      0.068500   -2.187200   -0.010300
O      1.380200   -1.766500   -0.020700
H      1.393000    2.844700    0.003800
H      3.223000    0.818700   -0.024600
H     -1.896600   -1.229800    0.013900
H     -0.066600   -3.255800   -0.014700
