18
gdb_11948
C     -0.011000    1.481100   -0.040500
C      0.049200   -0.006000    0.089500
C      1.212900   -0.896400   -0.230200
C      0.554200   -0.975200    1.145200
C      1.295600   -0.789300    2.432000
O      1.942700   -1.978400    2.872200
C     -0.797700   -1.658000    0.969800
O     -1.174300   -0.734100   -0.087800
H      0.960000    1.929900    0.187000
H     -0.279000    1.759500   -1.066100
H     -0.762200    1.905000    0.632800
H      1.092200   -1.700800   -0.951300
H      2.185400   -0.411100   -0.237200
H      2.012600    0.041700    2.329400
H      0.604300   -0.521700    3.239000
H      2.506400   -2.278600    2.151100
H     -0.808300   -2.701700    0.635300
H     -1.458700   -1.541700    1.837200
