14
gdb_20429
C     -0.111800    1.365800   -0.244200
C      1.287500    0.918800    0.009400
N      0.185800   -0.033000    0.080700
C     -0.188600   -0.537400    1.322800
N      0.685700   -0.734700    2.286800
O     -0.037300   -1.325200    3.326300
C     -1.317100   -1.448600    2.948300
C     -1.497600   -0.974900    1.693000
H     -0.590800    1.969000    0.523000
H     -0.460900    1.539100   -1.257400
H      1.968400    0.769000   -0.822400
H      1.751000    1.212600    0.945900
H     -1.979700   -1.894800    3.674300
H     -2.398900   -0.943400    1.105200
