15
gdb_18468
O      0.135300    1.255400   -0.330800
C      0.045700   -0.038900    0.242000
C     -1.355000   -0.604000    0.130700
C     -1.891200   -1.265900   -1.090800
O     -0.835600   -1.980800   -1.786800
C     -0.697300   -2.837300   -0.686700
N     -0.012500   -3.876400   -0.554700
C     -1.691100   -2.103500    0.154500
H      0.016900    1.158300   -1.281500
H      0.773200   -0.730300   -0.200600
H      0.306600    0.079300    1.298200
H     -2.109500   -0.019400    0.654100
H     -2.776900   -1.017500   -1.659300
H      0.521600   -4.080500   -1.401000
H     -2.390300   -2.544700    0.849000
