18
gdb_12971
C     -0.093900    1.565100    0.009900
C      0.171900    0.073300    0.039000
O      1.329400   -0.360400   -0.753500
C      1.777900   -1.186000    0.333000
C      2.202400   -0.291600    1.443000
O      2.788500    0.948600    1.193600
C      0.720600   -0.622600    1.287500
C     -0.119600   -1.254700    2.357700
H      0.733300    2.129300    0.442800
H     -0.262900    1.899900   -1.018900
H     -1.000300    1.785900    0.584500
H     -0.704900   -0.473200   -0.336200
H      2.129000   -2.184900    0.095500
H      2.654900   -0.787100    2.298800
H      2.749700    1.064000    0.234000
H     -0.593200   -0.494300    2.990200
H     -0.914600   -1.876800    1.930000
H      0.484100   -1.891900    3.011900
