18
gdb_14240
C      0.450300    1.484600   -0.216300
C      0.193800    0.014700    0.033000
O      1.038800   -0.862400   -0.778900
C      1.339100   -1.696800    0.364600
C      2.733300   -1.320200    0.936200
O      3.646700   -0.849900   -0.012100
C      2.034300   -0.282500    1.886000
C      0.645000   -0.695500    1.329400
H      1.493800    1.753100   -0.033100
H      0.213400    1.733200   -1.255700
H     -0.186900    2.096100    0.431700
H     -0.858700   -0.216100   -0.184800
H      1.070200   -2.743300    0.200900
H      3.210800   -2.134700    1.489400
H      3.102300   -0.480500   -0.723800
H      2.158700   -0.517700    2.945900
H      2.334900    0.755500    1.728900
H     -0.132000   -0.965200    2.042800
