11
gdb_3954
O     -0.026000    1.419000    0.008200
C      0.003600    0.003000    0.002300
C     -1.412400   -0.466200    0.012300
C     -2.574400    0.235100    0.024200
O     -3.592900   -0.624500    0.029400
N     -3.017800   -1.927700    0.020400
N     -1.765700   -1.796600    0.010500
H      0.879900    1.740400    0.001700
H      0.515500   -0.394000   -0.888300
H      0.530200   -0.401000    0.881100
H     -2.800400    1.287100    0.029700
