14
gdb_8643
C     -0.080500    1.401400   -0.050000
O      0.048700   -0.017000   -0.003000
C      0.714200   -0.548100    1.122400
C      2.202800   -0.142200    1.211900
C      0.020700   -0.161800    2.383300
N     -0.506200    0.192900    3.347700
C      0.623600   -2.018800    0.974900
N      0.598100   -3.167100    0.865800
H      0.887200    1.898300   -0.185400
H     -0.709100    1.606600   -0.917300
H     -0.569600    1.791400    0.850800
H      2.291900    0.929200    1.398400
H      2.690500   -0.678700    2.028200
H      2.690400   -0.395900    0.268400
