21
gdb_6332
C     -0.060100    1.480000    0.002300
N     -0.061900    0.028300    0.024100
C      0.527300   -0.594400   -0.910800
C      1.248000   -0.003200   -2.097700
O      0.580800   -1.944200   -0.942600
C     -0.044700   -2.681800    0.133800
C     -1.540300   -2.826300   -0.133100
C      0.684300   -4.017100    0.200500
H      0.954000    1.906400    0.006800
H     -0.580500    1.888700   -0.876600
H     -0.576900    1.852200    0.890900
H      2.078100    0.627700   -1.763000
H      1.636600   -0.790200   -2.743600
H      0.572100    0.635800   -2.675200
H      0.104900   -2.112500    1.055600
H     -2.015800   -1.844600   -0.169000
H     -1.713000   -3.344000   -1.082500
H     -2.010500   -3.408700    0.665900
H      1.752400   -3.868000    0.380400
H      0.278600   -4.628200    1.012400
H      0.567900   -4.570400   -0.737000
