18
gdb_19188
C     -0.155000    1.609000   -0.010800
C      0.025000    0.097600    0.018600
C      1.163200   -0.598900   -0.817100
C      2.449400    0.054200   -0.260900
C      2.116900    0.044400    1.275200
C      0.717500   -0.612000    1.241800
C      0.970900   -1.728700    0.211800
O      0.897300   -2.921200    0.188300
H      0.770000    2.153400    0.193200
H     -0.519600    1.931600   -0.991600
H     -0.893900    1.920700    0.734900
H     -0.932500   -0.389700   -0.191700
H      1.085800   -0.765300   -1.889900
H      3.339500   -0.533100   -0.500300
H      2.603100    1.062800   -0.652100
H      2.829800   -0.548100    1.854100
H      2.092400    1.047800    1.707200
H      0.203800   -0.791200    2.184400
