16
gdb_6198
C      0.064500    1.453100    0.122400
C     -0.061700   -0.062100   -0.011500
C     -1.497400   -0.551800   -0.071500
O      0.630200   -0.530900   -1.167600
C      1.904400   -0.983600   -0.768200
C      1.789600   -1.198000    0.735000
O      2.566100   -1.711500    1.483200
O      0.595600   -0.680400    1.115100
H      1.117100    1.747800    0.151700
H     -0.410900    1.940300   -0.732500
H     -0.417000    1.796900    1.041300
H     -1.984100   -0.149200   -0.963400
H     -1.513600   -1.642400   -0.122100
H     -2.050800   -0.224900    0.812100
H      2.149700   -1.919600   -1.277600
H      2.701200   -0.255000   -0.978200
