15
gdb_2954
O     -0.210100    1.436600    0.390400
C     -0.036500    0.049900    0.196200
C     -1.365400   -0.650300   -0.083800
O     -2.236700   -0.635400    1.032400
C     -3.277900    0.294900    0.763900
C     -3.371700    0.241900   -0.758300
O     -2.012100    0.051700   -1.140800
H     -0.688600    1.745400   -0.388500
H      0.656100   -0.169000   -0.633000
H      0.391400   -0.361300    1.115000
H     -1.197800   -1.703100   -0.361300
H     -4.184800   -0.039500    1.274100
H     -3.005900    1.298600    1.115300
H     -3.990900   -0.602200   -1.093300
H     -3.736100    1.162800   -1.219700
