15
gdb_12631
C      0.027700    1.451100   -0.003600
N     -0.035900    0.007000   -0.038300
C      0.010900   -0.790800   -1.195400
C      0.063300   -2.096400   -0.914200
C      0.020500   -2.263700    0.585300
O      1.018000   -3.073900    1.169900
C      0.038800   -0.790700    1.092200
O      0.120800   -0.398100    2.232400
H      0.934900    1.826300   -0.492100
H     -0.845200    1.898300   -0.491200
H      0.041900    1.746300    1.047100
H     -0.010600   -0.300300   -2.159700
H      0.082000   -2.908800   -1.624200
H     -0.931300   -2.707000    0.906100
H      1.875900   -2.706700    0.929700
