16
gdb_434
C     -0.204200    1.561000   -0.094000
C      0.003700    0.053100   -0.034900
C      1.248900   -0.490300   -0.770100
O      1.873200   -0.883200    0.467100
C      0.684700   -0.555700    1.227600
C      0.990700    0.302300    2.438800
H      0.719300    2.106500    0.123700
H     -0.535100    1.860500   -1.094400
H     -0.967100    1.891100    0.619100
H     -0.924600   -0.458200   -0.303200
H      1.066400   -1.349000   -1.430300
H      1.848300    0.251500   -1.314000
H      0.181800   -1.478400    1.554700
H      1.489000    1.233800    2.158500
H      0.071900    0.544100    2.984200
H      1.653100   -0.244100    3.117900
