15
gdb_15742
N     -0.073300    1.471300    0.030300
C      0.030700    0.210400    0.037100
O     -1.089400   -0.585700    0.172100
C     -2.337900   -0.036200   -0.000200
O     -3.315000   -0.685000    0.206500
C      1.232800   -0.656900   -0.059000
C      2.407800   -0.221900   -0.916500
C      2.537000   -0.204100    0.571900
H      0.832800    1.921500   -0.082300
H     -2.297600    1.003800   -0.344700
H      1.007500   -1.715000   -0.026500
H      2.920000   -0.994300   -1.478000
H      2.313400    0.724500   -1.438400
H      2.529300    0.754800    1.079200
H      3.140700   -0.963300    1.054900
