18
gdb_19946
O      0.272700    0.062000   -0.160200
C      0.069000    1.231100   -0.009200
C     -1.198300    2.077400    0.203800
C     -0.274600    3.205900    0.751500
C      0.989900    2.453800    0.213900
C      2.207000    2.289600    1.080000
C      3.532200    1.908100    0.470000
C      3.333800    3.295400    1.024700
H     -1.677300    2.329600   -0.748100
H     -1.953900    1.653100    0.869400
H     -0.442700    4.207900    0.355600
H     -0.282500    3.251900    1.843200
H      1.278600    2.853700   -0.767700
H      1.998300    1.864600    2.058700
H      4.165100    1.217800    1.015600
H      3.577100    1.790500   -0.607400
H      3.244600    4.117400    0.321900
H      3.832300    3.557800    1.951200
