15
gdb_14428
O      0.031200    1.420300   -0.014800
C      0.006800    0.026800   -0.024300
C     -1.320900   -0.736600   -0.095500
C     -1.669100   -0.814100   -1.600500
N     -0.623800   -0.015900   -2.282400
C      0.359600   -0.682800   -1.361800
C     -0.718900   -1.803100   -0.976000
O     -0.690700   -3.152300   -0.751800
H     -0.328100    1.678500   -0.877100
H      0.623300   -0.336600    0.801500
H     -2.087700   -0.856400    0.658800
H     -2.689800   -0.895700   -1.950700
H     -0.495000   -0.385400   -3.222200
H      1.383400   -0.790600   -1.713700
H     -0.585600   -3.605000   -1.596600
