14
gdb_11727
O     -0.026300    1.425100   -0.159100
C      0.034200    0.037000   -0.025500
C      0.420500   -0.580900    1.375200
C     -0.939900   -1.269300    1.392400
O     -1.947800   -0.248300    1.253200
C     -1.318100   -0.701500    0.062500
C     -1.355500   -2.572200    1.945100
O     -0.590300   -3.358400    2.446300
H     -0.672200    1.738600    0.486500
H      0.668900   -0.341600   -0.829400
H      1.254900   -1.281500    1.320800
H      0.585500    0.136400    2.181700
H     -1.957400   -1.100600   -0.717900
H     -2.443600   -2.773500    1.842000
