17
gdb_17341
O     -0.104900    1.423100    0.098600
C     -0.037600    0.029200    0.058600
C     -0.313700   -0.733000   -1.209700
C     -1.297100   -0.793500   -0.051300
C     -1.234400   -1.946400    0.956800
C      0.126100   -1.829600    1.643700
N      1.285200   -2.012800    0.743600
C      0.842400   -0.647200    1.100500
H      0.616000    1.769400   -0.438400
H     -0.635700   -0.141300   -2.060800
H      0.300800   -1.596100   -1.435300
H     -2.246800   -0.291900   -0.199400
H     -2.025700   -1.822200    1.704300
H     -1.371700   -2.929000    0.492800
H      0.224800   -2.141500    2.679100
H      2.102900   -2.259300    1.296300
H      1.480200   -0.011700    1.705400
