17
gdb_3347
C      0.026900    1.580600   -0.053100
C      1.589500    1.402400    0.051800
C      1.277200    0.016900    0.569400
C      1.444400   -0.833000    1.576200
C      0.173900   -1.666300    1.742600
C     -0.922600   -0.797400    1.038600
C     -0.118600    0.016300    0.005900
H     -0.379600    2.058200    0.842300
H     -0.352900    2.089200   -0.942600
H      2.053600    1.402600   -0.940600
H      2.149700    2.079100    0.701500
H      2.292100   -0.904400    2.248100
H      0.263800   -2.655700    1.271300
H     -0.061500   -1.850400    2.796700
H     -1.727400   -1.398900    0.605900
H     -1.373900   -0.124400    1.776900
H     -0.190100   -0.397200   -1.008200
