16
gdb_20541
C     -0.062600    1.574100    0.463300
C     -0.067200    0.102500    0.031000
C      0.958800   -0.726000    0.826400
C     -1.436400   -0.499900    0.139000
C     -2.608700   -0.033000    0.644500
O     -3.552800   -0.964200    0.510800
N     -2.920700   -2.078400   -0.119800
N     -1.717400   -1.776800   -0.315000
H      0.934800    2.004000    0.336500
H     -0.764300    2.171100   -0.127700
H     -0.333300    1.675400    1.520600
H      0.220200    0.054500   -1.027800
H      1.968300   -0.332100    0.673100
H      0.738200   -0.691300    1.898800
H      0.944100   -1.772100    0.510700
H     -2.901500    0.896400    1.103100
