8
gdb_3820
N      0.068900   -1.122200   -0.004600
C     -0.003900    0.031000    0.002900
C     -0.084700    1.450700    0.012000
N     -1.154200    2.189400    0.029900
C     -0.609800    3.448000    0.030100
N      0.696900    3.487100    0.013400
O      1.062700    2.146800    0.001100
H     -1.200700    4.351700    0.042800
