19
gdb_6978
C     -0.443600    1.429700    0.003600
C      0.135600    0.029100   -0.072400
O      1.226500    0.014600   -1.038100
C      2.194800   -0.737600   -0.468100
N      2.064900   -1.151000    0.721200
C      0.776100   -0.599800    1.216400
C      1.097600    0.410900    2.327100
C     -0.093100   -1.733800    1.768300
H      0.299600    2.154400    0.343900
H     -0.801100    1.742200   -0.981500
H     -1.292800    1.451800    0.693800
H     -0.626400   -0.656800   -0.464500
H      3.049700   -0.926300   -1.109300
H      1.727500    1.225200    1.958400
H      0.186200    0.842000    2.753400
H      1.645400   -0.095600    3.126100
H      0.399000   -2.211800    2.619600
H     -1.064800   -1.351900    2.102300
H     -0.266600   -2.497400    1.004500
