14
gdb_11741
O      0.068600    1.416900    0.225800
C      0.008100    0.043000   -0.108100
C     -1.371600   -0.510000    0.044200
C     -2.093500   -1.003800    1.238500
C     -1.953000   -1.905000   -0.004400
C     -2.842400   -1.338400   -1.076800
O     -3.641400   -1.721800   -1.865000
O     -2.365500   -0.036700   -0.923600
H     -0.500700    1.889300   -0.392000
H      0.359500   -0.143000   -1.133700
H      0.682800   -0.477300    0.578900
H     -1.479900   -1.320100    2.076900
H     -3.059400   -0.585000    1.499900
H     -1.498200   -2.884400    0.018200
