15
gdb_16762
O      0.115700    1.361000    0.109400
C      0.010000   -0.037000    0.059000
C     -1.421700   -0.475400    0.070100
N     -2.414600    0.324900    0.055600
C     -3.601000   -0.498800    0.027500
C     -3.751600   -1.394000   -1.187200
C     -3.087900   -1.928600    0.047400
O     -1.670300   -1.810100    0.104700
H     -0.789600    1.702400    0.079400
H      0.492800   -0.439500   -0.845900
H      0.523300   -0.498700    0.916100
H     -4.469700   -0.132700    0.560000
H     -4.745600   -1.776400   -1.391700
H     -3.146500   -1.180000   -2.061800
H     -3.464700   -2.767500    0.616700
