13
gdb_19544
N     -0.122200   -1.185700    0.000700
C     -0.070300   -0.028300    0.009000
C      0.005800    1.380500    0.023300
C     -0.758000    2.474900    0.795800
C      0.554000    3.118300    1.248100
C      1.167700    2.460400   -0.012000
O      0.514200    3.148900   -1.113200
C     -0.682500    2.489600   -0.729500
H     -1.687000    2.352000    1.336100
H      0.614100    4.208900    1.296400
H      0.925300    2.663000    2.168400
H      2.230500    2.294800   -0.164500
H     -1.524200    2.468700   -1.407700
