14
gdb_5793
C      0.074900    1.537700    0.007500
O      1.205300    0.667900   -0.030400
C     -0.092900    0.071500    0.022300
C     -0.422400   -0.671300    1.255900
C      0.355600   -0.780000    2.367900
O     -0.261700   -1.537900    3.311900
C     -1.455800   -1.923000    2.791800
C     -1.611700   -1.429100    1.537200
H     -0.059900    2.088800    0.936400
H     -0.116500    2.096100   -0.908200
H     -0.405600   -0.401000   -0.910000
H      1.334500   -0.406600    2.614200
H     -2.068700   -2.538000    3.429700
H     -2.461400   -1.575900    0.888600
