19
gdb_7687
C     -0.090000    1.566100    0.047200
C      0.023100    0.056300   -0.064100
C     -1.103100   -0.679900    0.642200
C      0.581300   -0.660400   -1.238000
C      1.754900    0.030800   -1.909500
O      1.428300    1.182900   -2.660300
C      2.399000    0.149900   -0.498600
N      1.301600   -0.671700    0.121200
H      0.575800    2.100600   -0.627500
H     -1.112600    1.869100   -0.200100
H      0.105500    1.883300    1.078800
H     -2.067200   -0.457300    0.172400
H     -0.938800   -1.759900    0.616400
H     -1.157800   -0.372900    1.692100
H      0.101400   -1.551600   -1.632600
H      2.314900   -0.683900   -2.525700
H      2.220600    1.476800   -3.121200
H      3.352300   -0.374200   -0.401300
H      2.501000    1.159400   -0.091900
