14
gdb_18174
C      0.091000   -1.190800   -0.020800
C      0.001200    0.010800    0.000400
C     -0.047700    1.423200    0.005500
C     -1.137000    2.210000    0.086400
C     -0.795100    3.681000    0.027400
C      0.727800    3.682600   -0.024700
O      1.350800    3.102100    1.123300
C      1.186800    2.284400   -0.051000
H      0.156800   -2.250500   -0.028700
H     -2.149900    1.845700    0.208500
H     -1.225100    4.160600   -0.861900
H     -1.173000    4.230800    0.898200
H      1.271200    4.499300   -0.491400
H      2.103100    1.935200   -0.515600
