13
gdb_15744
N     -0.088000    1.470700    0.356100
C      0.007000    0.224300    0.196500
O     -1.055100   -0.571500   -0.155600
C     -2.335600   -0.068800   -0.053600
O     -3.263300   -0.705700   -0.438100
C      1.240400   -0.613700    0.319700
C      2.373200   -0.388800   -0.597500
O      2.397700    0.090600    0.746400
H      0.821500    1.838000    0.640500
H     -2.359900    0.923500    0.412300
H      1.095300   -1.604500    0.745700
H      3.051300   -1.211100   -0.815500
H      2.286500    0.378200   -1.364300
