13
gdb_15483
N      0.254000    1.310000   -0.502500
C      0.127400    0.082500   -0.228000
O      1.151500   -0.829400   -0.134800
C      0.621000   -2.117700    0.192700
C     -0.856800   -1.912500    0.295200
C     -1.136000   -0.626500    0.048400
C     -2.467600    0.018500    0.042600
O     -3.493400   -0.579700    0.271800
H      1.232500    1.557400   -0.652200
H      0.896000   -2.835000   -0.592400
H      1.066900   -2.466500    1.133900
H     -1.569600   -2.691000    0.532000
H     -2.453000    1.100000   -0.189700
