12
gdb_11218
O     -0.810500    0.814500    0.521900
C      0.239400    0.808500   -0.061500
C      1.277200    1.922600    0.087200
C      1.375200    2.492700    1.510500
O      2.557900    1.873000    2.022500
C      3.274200    1.315600    1.016500
O      4.347000    0.822000    1.127800
O      2.580500    1.399400   -0.160400
H      0.537000    0.002300   -0.764000
H      1.059100    2.691200   -0.662900
H      1.503800    3.578400    1.524200
H      0.516100    2.210300    2.120800
