18
gdb_16178
C     -0.313700    1.312800   -0.091600
O      0.198600    0.003800    0.091200
C      0.791300   -0.528500   -1.043700
C     -0.045500   -1.072300   -2.174300
C      0.759800   -2.009300   -1.293700
C      2.147100   -2.370300   -1.784000
O      2.733400   -1.138300   -2.210300
C      2.206300   -0.089400   -1.407700
H      0.481500    2.040700   -0.305900
H     -1.047300    1.347000   -0.908800
H     -0.804000    1.594500    0.843000
H     -1.118400   -1.079500   -2.017500
H      0.275900   -0.907000   -3.198300
H      0.238500   -2.668700   -0.610900
H      2.730500   -2.827900   -0.968900
H      2.165000   -3.047200   -2.644400
H      2.269500    0.830000   -1.999000
H      2.778600    0.049300   -0.475500
