10
gdb_21913
O      0.127300    1.320600    0.157500
C      0.081300   -0.007100    0.067300
N      0.080200   -0.648000   -1.073600
O      0.024600   -2.006400   -0.728600
C     -0.004900   -2.124400    0.593600
C      0.027100   -0.896900    1.191200
C      0.011600   -0.576900    2.566800
N     -0.000900   -0.310500    3.693000
H      0.157900    1.687500   -0.737100
H     -0.048500   -3.126000    0.992800
