22
gdb_18475
C     -0.535700    1.658600    0.308300
C     -0.191400    0.197300   -0.008200
C      0.500100   -0.482500    1.160100
C     -0.180100   -1.182000    2.304700
C     -1.354200   -2.050000    1.825800
C     -0.356400   -2.902900    0.968200
C     -0.633700   -3.211300   -0.499800
C      0.779600   -1.949300    1.376500
H      0.365600    2.234500    0.546800
H     -1.027300    2.145600   -0.539700
H     -1.206800    1.725300    1.171300
H     -1.108100   -0.331600   -0.283100
H      0.460500    0.156700   -0.890600
H      1.345700    0.107500    1.517400
H     -0.023600   -0.881600    3.334200
H     -1.822100   -2.628400    2.625200
H     -2.146300   -1.526500    1.279900
H     -0.197900   -3.852200    1.491800
H     -0.811200   -2.309900   -1.091100
H      0.215500   -3.738200   -0.950100
H     -1.513300   -3.857300   -0.602500
H      1.791400   -2.281200    1.585700
