21
gdb_6551
C      3.269900   -0.239500   -0.392100
C      2.047100   -1.064000   -0.066500
N      2.140400   -2.030300    1.035300
C      1.190900   -0.909900    1.149600
C      1.378800    0.148100    2.254900
C      0.067600    0.268500    3.049400
C      2.535400   -0.174500    3.200200
O      1.695300    1.428000    1.683800
H      3.767700    0.123500    0.505800
H      3.982200   -0.840200   -0.968700
H      2.996000    0.631900   -0.995700
H      1.504800   -1.398900   -0.952100
H      1.653600   -2.893800    0.812600
H      0.141800   -1.159800    0.986100
H     -0.195200   -0.680900    3.528200
H      0.163500    1.036000    3.821800
H     -0.762100    0.550200    2.389400
H      3.475900   -0.285300    2.659900
H      2.640200    0.634400    3.928900
H      2.347300   -1.111700    3.728900
H      1.020100    1.630900    1.027500
