15
gdb_20286
C     -0.058000    1.575800   -0.017800
C      0.164300    0.815300   -1.325800
C      0.054600    0.073500   -0.019100
N      1.371400   -0.380600    0.468700
C      2.180800    0.804100    0.791800
C      2.398300    0.060300   -0.487400
C      1.670900    1.166000   -1.297700
C      1.442500    1.947000    0.045600
H     -0.913100    2.135500    0.340900
H     -0.484400    0.669400   -2.180700
H     -0.794000   -0.558900    0.204300
H      2.742600    0.836700    1.718900
H      3.171700   -0.630500   -0.804700
H      2.149300    1.637500   -2.151800
H      1.756400    2.981100    0.159100
