14
gdb_3720
C      0.089300    1.568600    0.108900
C      0.019500    0.041200   -0.033900
C      0.688000   -0.448100   -1.279400
N      0.477800   -0.016500   -2.513300
C      1.320100   -0.783600   -3.258500
N      2.039700   -1.660100   -2.578800
N      1.619100   -1.427100   -1.310500
H      1.125200    1.908200    0.201100
H     -0.344800    2.049100   -0.770600
H     -0.459900    1.896700    0.995800
H      0.473400   -0.447400    0.836000
H     -1.030600   -0.274800   -0.055100
H      1.406000   -0.693000   -4.331100
H      2.004500   -1.962700   -0.549800
