22
gdb_10230
C      1.215200    1.555300   -0.243500
C      1.401800    0.050200   -0.151500
O      0.798600   -0.545500   -1.289300
C      0.868700   -1.974800   -1.341700
C     -0.339900   -2.467800   -2.139300
C     -1.681300   -2.071500   -1.520100
C      2.202400   -2.373200   -1.989300
O      2.365000   -1.742000   -3.244600
H      1.697900    1.951200   -1.141900
H      0.152100    1.808000   -0.287400
H      1.654900    2.047100    0.629300
H      2.472800   -0.198500   -0.096800
H      0.931600   -0.342700    0.764200
H      0.825000   -2.381700   -0.318200
H     -0.256900   -2.077800   -3.159100
H     -0.267000   -3.559500   -2.217700
H     -1.797300   -2.495100   -0.515500
H     -1.760800   -0.984800   -1.436700
H     -2.516300   -2.430300   -2.129300
H      3.034300   -2.125000   -1.309700
H      2.232800   -3.455200   -2.158000
H      2.082800   -0.828600   -3.105500
