16
gdb_20038
O      0.066800    1.115100   -0.751500
C      0.128700   -0.071700    0.028000
C     -1.260300   -0.589800    0.309300
O     -1.891900   -1.335800   -0.752000
C     -1.633100   -2.006800    0.475400
C     -0.699900   -3.180300    0.453800
C     -0.576200   -4.025300   -0.743400
O      0.466100   -3.124700   -0.359000
H     -0.303500    0.869600   -1.606200
H      0.729400   -0.850300   -0.450500
H      0.610500    0.210500    0.970900
H     -1.922400    0.152400    0.759800
H     -2.525900   -2.210700    1.073600
H     -0.549100   -3.640600    1.431900
H     -0.340800   -5.082700   -0.639600
H     -1.121900   -3.737600   -1.638900
