12
gdb_1231
N     -0.182100    1.282800    0.180800
C     -0.060700   -0.069400    0.248100
O      0.730800   -0.674500    0.929900
O     -0.999400   -0.648800   -0.560900
C     -1.030000   -2.073100   -0.568100
C     -2.351100   -2.563800   -0.004500
O     -2.800900   -3.655900   -0.224500
H      0.551000    1.828700    0.598000
H     -0.745800    1.695800   -0.541700
H     -0.907800   -2.427600   -1.595300
H     -0.209900   -2.459200    0.048600
H     -2.866200   -1.822900    0.647800
