20
gdb_18593
C      0.250400    1.595500    0.168000
C      0.112300    0.087800    0.029000
C      1.067700   -0.674200   -0.939000
C      1.380500   -1.709900    0.183500
C      2.813700   -1.749800    0.716200
C      2.896800   -0.445700    1.524200
O      1.592500   -0.229700    2.058300
C      0.618400   -0.810500    1.202900
H      1.269200    1.875400    0.451000
H      0.008100    2.098600   -0.774600
H     -0.421100    1.985600    0.940200
H     -0.929700   -0.170500   -0.191400
H      0.610000   -1.078400   -1.844900
H      1.942600   -0.086100   -1.236100
H      0.955200   -2.699100    0.009400
H      2.950200   -2.613100    1.375700
H      3.568300   -1.800700   -0.074300
H      3.597500   -0.492700    2.362900
H      3.197600    0.395600    0.880400
H     -0.154400   -1.250000    1.839900
