14
gdb_1327
C     -0.067400    1.566500   -0.054000
C      0.003300    0.059100   -0.001600
O     -1.172900   -0.601800   -0.378900
C      1.296700   -0.661600   -0.252200
C      0.688100   -0.650300    1.153000
C      1.319600    0.093300    2.204000
N      1.829900    0.702800    3.045100
H      0.841000    2.025600    0.342900
H     -0.193600    1.904200   -1.089400
H     -0.920200    1.923700    0.530100
H     -1.323200   -0.427700   -1.315200
H      1.252300   -1.609600   -0.774900
H      2.197800   -0.079500   -0.407100
H      0.204000   -1.567400    1.469100
