14
gdb_14260
O     -0.335400    1.427200    0.377100
C     -0.060700    0.079600    0.127900
C      0.372200   -0.858200    1.305000
C     -0.811100   -1.818700    0.942800
C     -1.314400   -0.786000   -0.100500
O     -2.424300   -0.441600    0.780100
C     -2.074400   -1.414700    1.693700
O     -2.646900   -1.711200    2.690800
H      0.497800    1.896700    0.485200
H      0.620000   -0.054200   -0.726600
H      1.362100   -1.302200    1.189300
H      0.293100   -0.408200    2.296300
H     -0.613900   -2.872300    0.764900
H     -1.666700   -0.996800   -1.108700
