17
gdb_8044
C     -0.027800    1.475500    0.031400
C      0.032100   -0.026600    0.013100
C      0.614800   -0.959900   -1.094800
C      0.068300   -1.919300   -0.002800
C      0.713800   -0.976900    1.050200
C     -1.202900   -1.009100    0.035900
C     -2.058500   -1.026700    1.210800
N     -2.750100   -1.028500    2.138100
H      0.980700    1.902200    0.017100
H     -0.569300    1.860600   -0.839200
H     -0.534800    1.835000    0.932800
H      0.102500   -0.960800   -2.061200
H      1.700200   -0.938400   -1.216300
H      0.066600   -3.008400   -0.011500
H      1.806100   -0.954900    1.070600
H      0.294400   -0.993900    2.058300
H     -1.812600   -1.012700   -0.872300
