18
gdb_6922
C      0.111100    1.509700   -0.187700
C     -0.076100    0.036400    0.100200
C     -1.268200   -0.598100   -0.585900
O      1.121700   -0.762400    0.060900
C      0.454200   -0.606100    1.320700
C      1.222700    0.088400    2.426500
C      2.373400   -0.772800    2.916200
O      2.575200   -1.049800    4.070100
H      1.019300    1.906700    0.267700
H      0.184900    1.669200   -1.268800
H     -0.745700    2.086900    0.176000
H     -1.185400   -0.487900   -1.672500
H     -1.329400   -1.664200   -0.355000
H     -2.200400   -0.117200   -0.270500
H     -0.061600   -1.510200    1.653000
H      1.653100    1.025500    2.055400
H      0.570000    0.315300    3.275100
H      3.040800   -1.140000    2.105900
