12
gdb_154
O     -0.025500    1.279000    0.462300
C      0.000400   -0.008600   -0.136200
C     -1.394600   -0.571200   -0.111900
C     -1.589000   -2.035100    0.032400
N     -1.949700   -1.125100    1.130500
H      0.840200    1.681700    0.346200
H      0.355900    0.042800   -1.178100
H      0.676500   -0.690900    0.408000
H     -2.116300    0.000100   -0.691700
H     -2.427600   -2.523600   -0.455100
H     -0.703600   -2.658500    0.135200
H     -1.230300   -1.138700    1.850200
