18
gdb_5619
C      0.054100    1.410400    0.062300
N     -0.113300   -0.027000   -0.035500
C      0.577900   -0.680000   -1.066100
C      1.208500   -0.111900   -2.154500
N      1.688100   -1.145200   -2.936000
C      1.382500   -2.344300   -2.354400
C      0.689300   -2.103400   -1.189300
C      0.139500   -3.112200   -0.229300
H      1.107900    1.732100    0.128400
H     -0.383500    1.891200   -0.820300
H     -0.479800    1.780100    0.941500
H      0.014800   -0.488400    0.855300
H      1.346800    0.916400   -2.441500
H      2.183400   -1.029300   -3.800500
H      1.673800   -3.278300   -2.809100
H      0.612900   -3.049200    0.760600
H     -0.938000   -2.976800   -0.073500
H      0.297200   -4.131000   -0.595000
