14
gdb_12685
O     -0.052100    1.462200    0.535800
C      0.126200    0.137100    0.095100
C      0.720100   -0.697900    1.237800
O     -0.402600   -1.126000    2.048200
C     -1.548600   -0.959800    1.365900
O     -2.648100   -1.089200    1.828100
C     -1.237600   -0.544800   -0.071800
O     -2.225700    0.313100   -0.580300
H     -0.872100    1.769300    0.122600
H      0.751000    0.088400   -0.806400
H      1.249600   -1.583600    0.872500
H      1.379400   -0.103500    1.871100
H     -1.138500   -1.454500   -0.685100
H     -3.015200    0.160500   -0.038700
