16
gdb_7294
C     -0.056700    1.637100    0.154300
C     -0.046300    0.104500    0.009200
C      0.774800   -0.578500    1.124700
C      2.167400   -0.141100    1.144400
N      3.267900    0.212200    1.141400
C     -1.484600   -0.423600    0.086300
N     -2.138400   -0.489800   -1.106500
O     -2.006400   -0.732100    1.140900
H      0.961800    2.033300    0.130100
H     -0.625400    2.103100   -0.655300
H     -0.519600    1.925800    1.103000
H      0.390400   -0.158600   -0.961300
H      0.303800   -0.369000    2.089700
H      0.751100   -1.666100    1.000600
H     -1.708900   -0.224400   -1.974900
H     -3.107000   -0.765300   -1.107500
