16
gdb_13749
C     -0.059300    1.516300    0.065900
C      0.064600    0.027000   -0.182600
O      1.123500   -0.495200   -0.460400
C     -1.209000   -0.759800   -0.076000
C     -1.306800   -2.081600   -0.780200
C     -1.255500   -2.081900    0.725100
C     -0.061600   -2.623000    1.430500
O     -0.136200   -3.170800    2.504500
H      0.917900    1.991400   -0.021700
H     -0.754400    1.962600   -0.654900
H     -0.476000    1.699400    1.063000
H     -2.114000   -0.168800    0.015100
H     -2.242600   -2.347600   -1.256600
H     -0.405500   -2.394800   -1.297100
H     -2.180800   -2.252500    1.265100
H      0.900500   -2.507500    0.896600
