15
gdb_12651
C     -0.230500    1.554400    0.019600
C      0.124500    0.071100   -0.001200
C      0.959500   -0.421600   -1.189200
O      1.770600   -1.516200   -0.699400
C      1.903400   -1.457800    0.652900
N      2.649000   -2.184800    1.365200
C      0.972700   -0.380700    1.185000
O      0.926400    0.027100    2.312200
H      0.666600    2.173400   -0.082100
H     -0.917600    1.811600   -0.791300
H     -0.703700    1.806800    0.971700
H     -0.794400   -0.531000    0.053500
H      0.369100   -0.804900   -2.023100
H      1.625700    0.366200   -1.561900
H      3.179000   -2.840500    0.786000
