19
gdb_3404
C      0.132800    1.636600   -0.398600
C      0.237500    0.139300   -0.185800
C      1.467400   -0.698900   -0.395400
C      2.729100   -0.003200    0.137100
C      2.107700   -0.007500    1.576800
C      2.075400    1.256500    2.430400
C      0.814300   -0.603500    0.995500
H      1.071900    2.161000   -0.212100
H     -0.154600    1.849500   -1.434700
H     -0.629400    2.078400    0.253100
H     -0.649700   -0.382200   -0.544600
H      1.476200   -1.539000   -1.080200
H      3.628500   -0.618600    0.065700
H      2.955300    0.977000   -0.296300
H      2.608800   -0.794300    2.151600
H      1.598700    2.096200    1.919200
H      1.521800    1.079900    3.359800
H      3.090400    1.565700    2.705900
H      0.217400   -1.350600    1.508500
