24
gdb_6234
C     -0.615800    1.417100    0.176500
C     -0.013600    0.025100   -0.009000
C     -1.059900   -0.894800   -0.651100
C      1.337700   -0.057800   -0.783900
C      1.848900   -1.093800    0.248000
C      0.727500   -0.642600    1.234100
C      1.271300    0.385800    2.234000
C     -0.002500   -1.746900    1.997200
H      0.102100    2.131100    0.588100
H     -0.958200    1.814000   -0.786600
H     -1.485100    1.392300    0.844900
H     -1.397000   -0.467600   -1.602600
H     -0.663300   -1.892000   -0.864900
H     -1.941400   -1.015300   -0.011800
H      1.281500   -0.376300   -1.828800
H      1.897500    0.881000   -0.743300
H      1.711300   -2.123800   -0.093400
H      2.879000   -0.985600    0.599300
H      1.858400    1.170600    1.747300
H      0.465600    0.870600    2.796200
H      1.927900   -0.110400    2.957900
H      0.671700   -2.215500    2.724100
H     -0.857900   -1.349600    2.557100
H     -0.372200   -2.536100    1.337600
