24
gdb_5994
C      0.069300    1.556100    0.157800
C     -0.077100    0.046300    0.039000
O      0.639800   -0.537300    1.108800
C      0.724400   -1.968900    1.183300
C     -0.668900   -2.620100    1.178400
C      1.574400   -2.519200    0.025600
C      1.461100   -2.226100    2.514500
C      0.753100   -1.697000    3.764800
H      1.122500    1.845200    0.097500
H     -0.477600    2.058400   -0.646100
H     -0.324800    1.904000    1.117000
H     -1.141400   -0.230600    0.077200
H      0.310900   -0.291700   -0.933800
H     -1.146400   -2.546900    0.197000
H     -0.588000   -3.683700    1.424000
H     -1.325900   -2.148000    1.913200
H      2.547400   -2.019700   -0.000600
H      1.741600   -3.593600    0.151500
H      1.087400   -2.376600   -0.943500
H      1.636400   -3.304600    2.608100
H      2.446900   -1.753100    2.434100
H      0.525000   -0.634400    3.652900
H     -0.183700   -2.227500    3.962600
H      1.389800   -1.820600    4.646300
