14
gdb_14221
C     -0.072500    1.414900    0.025900
C      0.023500   -0.072400    0.002300
O     -1.155100   -0.838900   -0.300000
C     -0.435600   -2.003700    0.188500
C      0.602200   -1.081100    0.919300
C      1.237800   -0.866500   -0.505400
C      0.674800   -2.204100   -0.878700
O      1.052700   -3.131400   -1.533400
H      0.878400    1.853800    0.340400
H     -0.316600    1.797000   -0.970000
H     -0.853100    1.734000    0.722500
H     -1.057900   -2.798900    0.588300
H      1.087600   -1.088200    1.883500
H      2.189900   -0.417700   -0.751200
