16
gdb_1911
C      0.043100    1.533800    0.012000
C     -0.051900    0.039600    0.075100
C     -1.345800   -0.790600    0.011700
C     -0.683100   -1.815900    0.999600
O     -0.440100   -3.127600    0.533800
C      0.580400   -0.957300    1.013700
N      1.086100   -0.770800   -0.343100
H      1.061100    1.859800    0.240100
H     -0.209700    1.899400   -0.990500
H     -0.645400    2.004400    0.722300
H     -2.216500   -0.293200    0.448100
H     -1.611000   -1.178000   -0.978300
H     -1.192700   -1.824200    1.972300
H     -1.287100   -3.572500    0.428100
H      1.262900   -0.824000    1.845500
H      0.831200   -1.553100   -0.944000
