18
gdb_10531
C      0.224100    1.374300    0.203000
O      0.181000   -0.036000    0.166700
C      0.549100   -0.566900   -1.096400
C      0.554600   -2.079300   -1.013700
C     -0.553000   -2.700100   -0.168500
O     -1.798800   -2.053100   -0.347900
C      1.198100   -2.829600   -2.098600
O      1.832800   -2.699300   -0.823000
H      1.240100    1.749000    0.010000
H     -0.456300    1.821900   -0.537900
H     -0.084800    1.684600    1.203700
H     -0.170000   -0.237400   -1.863300
H      1.550700   -0.220100   -1.389900
H     -0.687100   -3.749300   -0.447400
H     -0.228300   -2.674400    0.881000
H     -1.696300   -1.183300    0.057500
H      0.834400   -3.825900   -2.346300
H      1.686800   -2.300600   -2.917200
