15
gdb_2200
C     -0.267100    1.272100   -1.428000
C      0.253600   -0.059200   -0.917900
O      1.638300   -0.324600   -1.259000
C      2.051300   -0.546700    0.113700
C      3.205100    0.330500    0.564500
C      0.631900   -0.172100    0.567000
O      0.082400    0.010100    1.610500
H      0.361600    2.097700   -1.083800
H     -0.280600    1.279200   -2.521800
H     -1.287600    1.433500   -1.067200
H     -0.398000   -0.883500   -1.244100
H      2.276900   -1.608900    0.290900
H      2.975000    1.389000    0.416000
H      3.406600    0.160500    1.626600
H      4.108400    0.088900   -0.003200
