18
gdb_17676
C     -0.050100    1.514200    0.053900
C      0.018800    0.004700    0.040200
C      1.330100   -0.704500   -0.242800
C      0.752400   -0.744000    1.140100
O      1.444300   -0.009100    2.108500
C      0.163000   -2.011300    1.676300
C      0.783400   -2.740000    2.787800
O     -0.362300   -1.900000    3.008500
H      0.827000    1.934800    0.551800
H     -0.095800    1.917100   -0.963500
H     -0.938700    1.863700    0.591200
H     -0.870300   -0.491800   -0.342900
H      1.328300   -1.610100   -0.840600
H      2.212800   -0.085000   -0.362100
H      0.851100    0.039800    2.870900
H     -0.475000   -2.561500    0.984200
H      0.600300   -3.806800    2.902700
H      1.714000   -2.367000    3.207900
