17
gdb_18500
O     -0.237400    0.042100   -0.154100
C      0.039000    1.202200    0.020200
C      1.398100    1.814500   -0.212800
C      1.361000    2.944400   -1.247900
C      0.568900    4.271300   -0.918400
C      1.877100    5.045500   -1.095700
N      2.815700    4.490900   -0.089700
C      2.632700    3.797200   -1.386100
H     -0.736300    1.921700    0.374600
H      1.755500    2.241900    0.733500
H      2.085700    1.021200   -0.522900
H      1.051200    2.557600   -2.222800
H     -0.186500    4.501600   -1.672000
H      0.126200    4.345500    0.078300
H      2.011600    6.047400   -1.484100
H      3.682500    5.023400   -0.154800
H      3.475900    3.618700   -2.042500
