17
gdb_16024
C      0.025300    1.509700   -0.011100
N      1.269400    0.720400    0.055700
C     -0.027300    0.030800    0.007800
C     -0.395700   -0.744900    1.257400
O      0.054700   -2.091900    1.151200
C     -0.426600   -2.700700   -0.014200
O      0.019600   -2.066000   -1.187000
C     -0.443800   -0.723400   -1.239800
H     -0.206500    2.078000    0.886200
H     -0.230200    2.015900   -0.939900
H      1.720300    0.693300   -0.856300
H      0.089700   -0.314800    2.135300
H     -1.489700   -0.725900    1.403200
H     -0.032100   -3.718100   -0.032900
H     -1.535000   -2.717600   -0.002200
H     -1.544100   -0.711500   -1.332500
H     -0.020500   -0.272300   -2.143000
