14
gdb_15327
C      0.155300    1.520400    0.021300
C      0.080400    0.068300    0.010500
C      0.005900   -1.133500    0.010900
C     -0.040200   -2.566800   -0.013500
O     -0.498900   -3.253100    1.159500
C     -1.320100   -3.331600   -0.009900
C     -2.602200   -2.685200    0.020500
C     -3.692400   -2.179900    0.018500
H      1.192000    1.866100   -0.053200
H     -0.403100    1.951900   -0.816500
H     -0.266800    1.926200    0.947000
H      0.805500   -3.054800   -0.499200
H     -1.307200   -4.308100   -0.494700
H     -4.651400   -1.723600    0.025500
