15
gdb_1432
C     -0.025700    1.516400    0.104800
C      0.141300    0.004100   -0.015100
C      0.609300   -0.443200   -1.392200
O      0.825500    0.334200   -2.298600
C      0.782100   -1.874600   -1.553000
C      0.922500   -3.067200   -1.675700
C      1.098500   -4.499100   -1.846400
H      0.917600    2.030700   -0.095400
H     -0.756900    1.887300   -0.617900
H     -0.362400    1.786800    1.109500
H      0.860500   -0.383000    0.719400
H     -0.796500   -0.524900    0.202400
H      2.135400   -4.733200   -2.111000
H      0.849400   -5.048100   -0.932400
H      0.459700   -4.874800   -2.653100
