15
gdb_8172
O      0.051800    1.425300   -0.006500
C     -0.020200    0.058100    0.049000
C      0.289500   -0.844600    1.290300
N     -0.448200   -1.927700    0.527900
C     -1.319900   -0.812700   -0.015900
C      0.482100   -2.142400   -0.623500
C      0.803300   -0.686900   -0.983900
O      1.496700   -0.176700   -1.825700
H      0.652300    1.637100   -0.740500
H      1.327200   -1.074200    1.547500
H     -0.273500   -0.553500    2.179100
H     -2.066800   -0.518000    0.723700
H     -1.790200   -1.012400   -0.982600
H      1.366700   -2.707600   -0.317400
H     -0.012600   -2.680300   -1.436900
