17
gdb_8078
C     -0.076700    1.524800   -0.006400
C      0.032500    0.017900    0.003800
C      1.076200   -0.717600   -0.900400
C      1.019700   -1.833700    0.168800
C      0.699800   -0.730700    1.204700
O     -0.158100   -2.640100   -0.046800
C     -1.257800   -1.872400   -0.238600
N     -1.284500   -0.605400   -0.235500
H      0.898200    1.990100    0.170700
H     -0.461400    1.872900   -0.970300
H     -0.772200    1.862100    0.768800
H      0.779200   -0.968000   -1.921000
H      2.048500   -0.220000   -0.892900
H      1.844800   -2.529700    0.312000
H      1.613400   -0.235100    1.540600
H      0.068200   -0.992600    2.056100
H     -2.146000   -2.477700   -0.401200
