18
gdb_12251
C      0.232500    1.435100    0.061700
O     -0.225800    0.130500   -0.215300
C      0.542900   -0.544700   -1.178800
C      1.867200   -1.151400   -0.606900
C      1.129500   -2.500900   -0.528500
O      1.331200   -3.527400    0.051200
C     -0.030000   -1.981800   -1.397800
C     -1.462400   -2.315000   -1.008000
H      1.250800    1.438100    0.477800
H      0.229000    2.063300   -0.842500
H     -0.449200    1.867500    0.797600
H      0.654500    0.068800   -2.082900
H      2.695600   -1.173600   -1.322300
H      2.225600   -0.744200    0.341600
H      0.172500   -2.287700   -2.433100
H     -1.689800   -1.934400   -0.010600
H     -2.177200   -1.876300   -1.710400
H     -1.602800   -3.399800   -1.006700
