20
gdb_18281
C      0.160100    1.662300    0.082100
C      0.077300    0.151100    0.041200
C      1.241000   -0.732500   -0.357100
C      2.614800   -0.162300   -0.676100
C      3.353900    0.411600    0.501300
C      2.908200    0.402000    1.755400
C      1.594700   -0.184100    2.194500
C      0.733000   -0.743400    1.072500
H      1.132600    2.017400    0.430400
H     -0.013100    2.088800   -0.912700
H     -0.604000    2.076200    0.750100
H     -0.889200   -0.209100   -0.304900
H      0.978800   -1.595100   -0.962600
H      3.232700   -0.958500   -1.114900
H      2.540400    0.601100   -1.465300
H      4.324700    0.851400    0.282900
H      3.521500    0.834200    2.543200
H      1.801000   -0.989100    2.914100
H      1.035400    0.569000    2.770100
H      0.151600   -1.612700    1.365100
