18
gdb_15622
C     -0.178200    1.550200   -0.022500
C      0.078400    0.033600    0.036900
C      0.787200   -0.479700   -1.179400
C      2.041200   -0.938100   -1.303600
C      2.403800   -1.367300   -2.703600
C      1.122100   -1.104800   -3.517000
C      0.111900   -0.547700   -2.504600
O     -1.032200   -0.227800   -2.740600
H      0.763100    2.106200   -0.081700
H     -0.781400    1.800000   -0.898600
H     -0.714700    1.884900    0.870400
H      0.654400   -0.216300    0.934700
H     -0.887300   -0.480000    0.117200
H      2.753500   -1.009700   -0.486700
H      3.265000   -0.800600   -3.078400
H      2.706400   -2.421500   -2.724600
H      1.265500   -0.377400   -4.321500
H      0.712900   -2.007500   -3.979800
