19
gdb_14150
C     -0.040700    1.506500   -0.227200
C      0.033900    0.016000   -0.002100
N      1.375000   -0.601800   -0.038300
C      0.607700   -0.605600    1.217000
C      1.196500    0.139800    2.419900
C      0.832000   -0.779400    3.601600
O      0.678300   -2.080400    3.044800
C      0.027000   -1.896100    1.801000
H      0.814400    2.011200    0.229000
H     -0.032600    1.736100   -1.298100
H     -0.960200    1.923200    0.198900
H     -0.773800   -0.547500   -0.472700
H      1.336600   -1.516100   -0.483600
H      2.278900    0.222800    2.296100
H      0.790600    1.147500    2.541900
H      1.602800   -0.835300    4.373600
H     -0.109200   -0.453600    4.074600
H     -1.063500   -1.798400    1.945200
H      0.213300   -2.778000    1.179300
