16
gdb_17418
C     -0.009600    1.586900    0.041500
C      0.022700    0.086000    0.092600
C     -1.260000   -0.790600    0.221800
C     -0.352400   -1.856500    0.840900
C      0.961300   -1.871000    0.044800
C      0.699400   -0.858600    1.186300
C      0.887100   -0.720000   -0.904800
O      1.470500   -0.413600   -1.907900
H      1.002100    2.002700    0.003500
H     -0.535200    1.921300   -0.859300
H     -0.525800    2.009200    0.909700
H     -1.952400   -0.381900    0.963800
H     -1.800000   -1.026900   -0.702400
H     -0.638700   -2.741400    1.395100
H      1.632900   -2.718200    0.052200
H      1.317800   -0.664600    2.049000
