15
gdb_7100
C      0.062600    1.534400    0.180400
C     -0.002300    0.030100    0.009100
O      0.679200   -0.568200    1.138200
C      0.721600   -1.907900    1.150300
O      0.247800   -2.627300    0.315200
C      1.472400   -2.366800    2.402600
C      1.574600   -3.816300    2.512200
N      1.673900   -4.960000    2.630400
H      1.099200    1.881600    0.204300
H     -0.444600    2.021600   -0.657300
H     -0.427600    1.844600    1.107300
H     -1.031400   -0.340300   -0.012000
H      0.488300   -0.303800   -0.909900
H      2.472900   -1.921000    2.394800
H      0.965500   -1.960100    3.284300
