18
gdb_20155
C     -0.051900    1.578300    0.011600
C      1.468800    1.801000    0.034800
C      1.939200    0.997300    1.263100
C      2.497300   -0.097000    0.392900
C      1.128700   -0.270300    1.035300
C      0.041100    0.032800   -0.043500
C      0.830300   -0.151600   -1.363900
C      2.062900    0.635900   -0.891600
H     -0.531600    1.952000    0.922000
H     -0.560200    2.002500   -0.860900
H      1.855300    2.807900   -0.111100
H      2.258300    1.363700    2.231300
H      3.341100   -0.759500    0.543100
H      0.978900   -0.982900    1.835400
H     -0.890000   -0.523800    0.059300
H      1.074100   -1.196500   -1.581500
H      0.316400    0.283500   -2.227700
H      2.823500    0.909500   -1.620600
