11
gdb_2458
O      0.002400    0.016100    0.038200
C     -0.014000    1.202300    0.014200
O     -1.144400    1.969600    0.025300
C     -0.790600    3.335700    0.019400
C     -0.033700    3.831500    1.226000
C      0.704200    3.356000   -0.000400
O      1.095000    2.000000   -0.004400
H     -1.455300    3.950400   -0.571900
H     -0.046000    4.902000    1.399600
H     -0.013500    3.211700    2.116100
H      1.336000    3.988300   -0.608900
