18
gdb_9360
C      0.066500    1.398500   -0.174400
N     -0.067400    0.003300    0.199200
C     -1.278700   -0.642200    0.036100
O     -2.315300   -0.058400   -0.236100
N     -1.209000   -2.009500    0.207600
C     -2.425800   -2.792600    0.312300
C     -2.139200   -4.241400   -0.040700
O     -1.152900   -4.709800    0.875500
H      0.791600    1.894800    0.477600
H      0.382400    1.533000   -1.218200
H     -0.909500    1.868300   -0.052000
H      0.764700   -0.562800    0.148400
H     -0.421300   -2.396900    0.704700
H     -2.853100   -2.748400    1.325300
H     -3.161600   -2.366600   -0.372300
H     -3.067000   -4.827800    0.037000
H     -1.775800   -4.303600   -1.076900
H     -0.878400   -5.590500    0.605300
