15
gdb_5789
C      0.029100    1.554300   -0.004600
N      1.254400    0.743400    0.018300
C     -0.051400    0.063300    0.028500
C     -0.396100   -0.682200    1.257800
C      0.385100   -0.848100    2.360000
O     -0.264000   -1.580900    3.304800
C     -1.483300   -1.892100    2.793800
C     -1.624500   -1.372900    1.547800
H     -0.162700    2.111400    0.907600
H     -0.248800    2.064300   -0.923700
H      1.664400    0.698600   -0.910200
H     -0.378600   -0.405900   -0.898100
H      1.381600   -0.522300    2.602400
H     -2.122500   -2.480600    3.431100
H     -2.489100   -1.462000    0.908100
