16
gdb_14444
O     -0.079400    1.397900   -0.052500
C      0.052000    0.022000   -0.040100
C      0.873600   -0.803500   -1.028900
C     -0.120000   -1.987600   -0.773100
C      0.386200   -2.859800    0.375300
O      0.527300   -1.951900    1.477600
C     -0.271000   -0.826100    1.179600
C     -1.085600   -0.996600   -0.062100
H      0.626500    1.774600    0.485000
H      0.771600   -0.405900   -2.041700
H      1.931800   -0.979300   -0.803600
H     -0.476200   -2.531600   -1.646500
H     -0.330600   -3.656100    0.626600
H      1.363000   -3.313400    0.177700
H     -0.675100   -0.324700    2.051400
H     -2.157500   -0.896400   -0.163300
