15
gdb_372
C     -0.088700    1.544800    0.055900
C      0.012700    0.018200    0.010300
C      0.770600   -0.515000   -1.230600
C      2.255700   -0.104100   -1.272400
C      0.652000   -1.976300   -1.293600
N      0.561300   -3.128100   -1.330500
H      0.891200    2.021300    0.151600
H     -0.567300    1.938600   -0.847700
H     -0.690500    1.859700    0.913200
H      0.510400   -0.355900    0.912500
H     -0.993200   -0.414700    0.010800
H      0.275200   -0.120500   -2.128200
H      2.752200   -0.525700   -2.149600
H      2.347200    0.983300   -1.318400
H      2.780100   -0.459500   -0.380400
