11
gdb_21511
N     -0.085000    1.331400    0.008700
C      0.101800   -0.000700    0.001400
O      1.142200   -0.608000   -0.009500
N     -1.148100   -0.722700    0.010400
C     -1.343200   -2.059100    0.008100
N     -2.631400   -2.299100    0.017800
N     -3.236900   -1.072300    0.027600
N     -2.367600   -0.126900    0.023300
H      0.727500    1.923200    0.003000
H     -1.013200    1.722900    0.017500
H     -0.540100   -2.775800   -0.001300
