14
gdb_16098
C     -0.000800   -1.212700   -0.110700
C      0.039800   -0.015300   -0.013400
C      0.046100    1.409700    0.132000
O      0.383700    2.191100   -1.051500
C      1.253800    2.273300    0.071600
C      1.017000    3.478800    0.972300
C     -0.402000    3.268400    1.461700
C     -0.925600    2.121600    1.025000
H     -0.025800   -2.270300   -0.203800
H      2.251100    1.868900   -0.077500
H      1.737200    3.503700    1.799700
H      1.130300    4.419600    0.420100
H     -0.921300    4.001800    2.067700
H     -1.914500    1.736300    1.235000
