18
gdb_2332
C      0.095800    1.546200   -0.224700
C      0.024400    0.063200    0.051100
N      1.294800   -0.683200    0.079700
C      0.482600   -0.588500    1.309700
C      1.093300    0.139100    2.484600
C      2.110400   -0.726100    3.220700
O      2.603700    0.022200    4.322200
H      0.974300    1.997100    0.241000
H      0.160700    1.730000   -1.302600
H     -0.798300    2.056400    0.150200
H     -0.816000   -0.431800   -0.436000
H      1.186100   -1.595500   -0.354100
H     -0.072800   -1.484400    1.591400
H      1.595200    1.052000    2.153900
H      0.305800    0.436500    3.188100
H      1.631400   -1.660900    3.558600
H      2.916900   -1.002100    2.524800
H      3.294000   -0.492600    4.749600
