15
gdb_3557
O     -0.058400    1.472500   -0.098300
C     -0.022800    0.063200   -0.096100
C     -1.363600   -0.640000   -0.113000
C     -1.789400   -0.792600   -1.578200
C     -0.713900   -0.132000   -2.439500
C      0.300200   -0.706000   -1.415000
C     -0.796500   -1.753600   -0.972200
H      0.844200    1.799400   -0.027300
H      0.595500   -0.321600    0.727100
H     -2.080400   -0.722800    0.693500
H     -2.826200   -0.981700   -1.825200
H     -0.624200   -0.626100   -3.410600
H     -0.732300    0.955200   -2.561900
H      1.329300   -0.922600   -1.696000
H     -0.794600   -2.824100   -0.834800
