13
gdb_2614
C     -0.039200   -1.190600   -0.004000
C      0.010600    0.008900    0.001900
C      0.032800    1.464200    0.009500
O      1.372300    1.925300   -0.000700
C      1.434200    3.340600    0.006200
C      2.823300    3.775100   -0.004700
C      3.959200    4.163500   -0.013400
H     -0.073700   -2.252000   -0.009300
H     -0.514400    1.849700   -0.868200
H     -0.497600    1.840200    0.901700
H      0.907700    3.753900   -0.871600
H      0.924600    3.744400    0.898300
H      4.966900    4.498500   -0.021200
