22
gdb_11460
C     -0.053200    1.546400    0.028600
C      0.096200    0.028500   -0.042000
C      1.093800   -0.480800   -1.096500
C      1.308700   -1.957100   -0.719000
C      1.168800   -2.015000    0.832800
C      2.480300   -2.344500    1.535200
O      2.863600   -3.663900    1.174200
C      0.624700   -0.623300    1.250600
H      0.909700    2.023400    0.247500
H     -0.419700    1.956500   -0.918600
H     -0.757300    1.844600    0.813100
H     -0.886400   -0.410500   -0.269500
H      0.741300   -0.345900   -2.123900
H      2.033300    0.081300   -1.002900
H      0.536500   -2.576700   -1.186700
H      2.270600   -2.355500   -1.051700
H      0.456900   -2.799800    1.108700
H      3.249500   -1.611800    1.236000
H      2.350300   -2.253400    2.626300
H      3.715400   -3.851900    1.578600
H      1.443600   -0.006200    1.648200
H     -0.133100   -0.683900    2.037600
