16
gdb_20556
C     -0.151300    1.588400   -0.084100
C     -0.021100    0.063200   -0.039000
C     -1.361300   -0.643700    0.184200
N      0.633100   -0.437700   -1.254800
C      0.273200   -0.381800   -2.549400
N      1.190500   -0.978000   -3.281500
N      2.132300   -1.406600   -2.401600
N      1.813500   -1.091800   -1.190000
H      0.821100    2.059200   -0.249000
H     -0.830600    1.906900   -0.881500
H     -0.555700    1.951900    0.864600
H      0.672000   -0.216900    0.758100
H     -2.078200   -0.396400   -0.605500
H     -1.231600   -1.728600    0.206800
H     -1.791400   -0.326600    1.138200
H     -0.627900    0.082300   -2.914300
