14
gdb_5277
C     -0.011500    1.486700    0.008300
C     -0.000500   -0.023000    0.002100
O      1.020800   -0.688800   -0.008900
C     -1.305200   -0.702200    0.010200
N     -2.516200   -0.165700    0.022400
C     -3.380300   -1.221000    0.025400
C     -2.686700   -2.415300    0.015000
N     -1.370000   -2.066500    0.005600
H      1.014100    1.856500    0.000300
H     -0.559400    1.863100   -0.861000
H     -0.542800    1.855800    0.891000
H     -4.450400   -1.078900    0.034800
H     -3.012000   -3.442600    0.013700
H     -0.554500   -2.659100   -0.003500
