16
gdb_2696
C     -0.036100    1.495500   -0.028400
C      0.020800   -0.033000    0.033700
C      0.757000   -0.532400    1.267300
O      0.762300   -1.952300    1.244600
C      1.424300   -2.503500    2.351600
C      1.389800   -3.966700    2.259500
N      1.379700   -5.120200    2.215700
H      0.967800    1.932900   -0.058400
H     -0.569300    1.828900   -0.922700
H     -0.554600    1.912800    0.841800
H     -0.991100   -0.452900    0.039700
H      0.521400   -0.432900   -0.855000
H      1.792700   -0.151900    1.282800
H      0.264700   -0.172000    2.186700
H      2.478100   -2.181200    2.399900
H      0.952300   -2.202100    3.301900
