13
gdb_7230
C      0.166900    1.173700    0.188300
C     -0.270700   -0.266600    0.186000
O      0.492200   -1.205000    0.193000
C     -1.773800   -0.521900    0.184600
N     -2.582900    0.448100    0.186900
O     -2.174500   -1.826200    0.300000
C     -1.562700   -2.840700   -0.415100
O     -1.751800   -3.976500   -0.128100
H      1.255800    1.217300    0.166300
H     -0.259100    1.699500   -0.670800
H     -0.218600    1.680200    1.078000
H     -3.550700    0.118500    0.212700
H     -0.981400   -2.476200   -1.270200
