16
gdb_21100
C      0.023500    1.428900   -0.020600
N      0.002500   -0.013500    0.077200
N     -0.044300   -0.757800   -1.040200
N     -0.042500   -2.013500   -0.674400
C     -0.009000   -2.077600    0.681900
N     -0.064900   -3.295200    1.373400
C      0.012400   -0.794800    1.195500
C      0.024200   -0.285400    2.594900
H      0.937600    1.837900    0.420600
H     -0.012000    1.678500   -1.080900
H     -0.842100    1.868000    0.485100
H     -0.089400   -4.060100    0.708600
H      0.721900   -3.431300    1.997000
H      1.005000    0.101900    2.899000
H     -0.704600    0.519300    2.743900
H     -0.238800   -1.099200    3.275900
