17
gdb_2805
C      0.212700    1.440000    0.064100
O     -0.286100    0.171000   -0.297200
C      0.529200   -0.504100   -1.215000
C      1.766500   -1.239100   -0.648100
O      1.217900   -2.521600   -1.005900
C      0.017700   -1.923600   -1.561000
C     -1.247900   -2.410600   -0.885300
H      1.190100    1.372800    0.565100
H      0.319800    2.096800   -0.813300
H     -0.505600    1.885700    0.755900
H      0.737800    0.134800   -2.085000
H      2.721500   -1.043200   -1.151500
H      1.895900   -1.130100    0.436400
H     -0.030500   -2.108700   -2.642800
H     -1.236200   -2.177200    0.180900
H     -2.128100   -1.938600   -1.333400
H     -1.333700   -3.494200   -1.012300
