18
gdb_392
C     -0.077300    1.537300    0.059800
C      0.012000    0.010200   -0.024800
C      0.772000   -0.517900   -1.254100
C      2.247700   -0.098200   -1.273900
C      0.641400   -2.040000   -1.333800
O      1.219300   -2.484100   -2.553900
H      0.908500    1.998500    0.170700
H     -0.540500    1.955800   -0.840800
H     -0.682200    1.845900    0.918300
H      0.488600   -0.377800    0.886500
H     -1.005200   -0.403200   -0.034200
H      0.287600   -0.116200   -2.155900
H      2.755400   -0.418600   -0.355100
H      2.760000   -0.559700   -2.120900
H      2.360400    0.986300   -1.356300
H      1.146700   -2.497700   -0.466200
H     -0.422600   -2.321500   -1.279200
H      1.202300   -3.445100   -2.562900
