15
gdb_2587
C     -0.343200    1.442500   -0.068800
C      0.222400    0.027500    0.088000
C      0.841000   -0.501500   -1.195600
C      0.667000   -1.917100   -1.583000
O     -0.108100   -0.899500   -2.207200
C      1.998700    0.213000   -1.686400
C      2.965300    0.822800   -2.059000
H      0.442200    2.150200   -0.350000
H     -1.113200    1.463800   -0.845500
H     -0.791800    1.786100    0.867600
H      0.984300    0.007100    0.876400
H     -0.572400   -0.664600    0.385700
H      1.413600   -2.393700   -2.215500
H      0.123600   -2.581400   -0.911600
H      3.817500    1.356400   -2.400900
