17
gdb_15063
O     -0.370400    1.653000   -0.267400
C      0.035500    0.342600    0.062000
C     -1.132500   -0.666800    0.060000
C     -2.083100   -0.411700    1.148200
C     -2.875900   -0.213900    2.030900
N     -1.707400   -0.685600   -1.298000
C     -2.983900   -1.361900   -1.506200
C     -2.898500    0.120600   -1.579600
H     -0.658200    1.633900   -1.185900
H      0.796900   -0.033000   -0.636500
H      0.474300    0.389900    1.062700
H     -0.692600   -1.661200    0.217600
H     -3.562700   -0.033600    2.820900
H     -3.049100   -1.962300   -2.409000
H     -3.486700   -1.775100   -0.634800
H     -3.343200    0.679800   -0.761400
H     -2.896800    0.623600   -2.542900
