16
gdb_459
C     -0.471100    1.439900   -0.013900
C      0.164500    0.051000    0.014400
C      1.136200   -0.237000   -1.164500
C      2.187700   -1.125600   -0.544100
C      2.111800   -1.133300    0.785800
C      0.996000   -0.251200    1.292700
H      0.295900    2.221800    0.034400
H     -1.048500    1.597300   -0.931400
H     -1.149300    1.587100    0.833800
H     -0.634800   -0.698700   -0.035600
H      0.627600   -0.698800   -2.018900
H      1.589500    0.691200   -1.545400
H      2.930800   -1.653200   -1.132300
H      2.783500   -1.668200    1.448600
H      1.402300    0.672200    1.733500
H      0.393700   -0.722500    2.078300
