19
gdb_11528
C     -0.325500    1.344300   -0.106300
N      0.058800   -0.049000    0.031400
C      0.090600   -0.640700    1.359500
C     -1.275000   -0.834100    1.990100
C     -2.113600   -2.026200    1.610500
C     -1.480100   -1.954900    2.977800
C      0.364800   -0.777300   -1.079800
O      0.341800   -0.371600   -2.223200
H      0.300700    1.978600    0.532500
H     -0.187900    1.624900   -1.150600
H     -1.374500    1.503300    0.169500
H      0.590100   -1.612600    1.277300
H      0.716800   -0.014800    2.011000
H     -1.813900    0.085600    2.199100
H     -3.186900   -1.897600    1.530300
H     -1.698800   -2.729300    0.895100
H     -0.639900   -2.610900    3.182600
H     -2.117300   -1.774500    3.836200
H      0.655500   -1.814500   -0.818300
