13
gdb_9139
O      0.437600    0.740200   -0.858500
C      0.026500    0.094300    0.333500
C     -1.354900   -0.389900    0.291600
C     -2.504700   -0.744100    0.242300
C     -3.886500   -1.225700    0.171400
O     -4.042100   -2.402400   -0.598200
C     -4.433200   -1.402400    1.541200
N     -4.865100   -1.561700    2.600300
H     -0.169800    1.469000   -1.024100
H      0.709300   -0.751500    0.468500
H      0.147900    0.743000    1.215300
H     -4.509400   -0.474500   -0.330000
H     -3.425300   -3.062600   -0.259700
