20
gdb_6503
C     -0.049200    1.568800    0.202400
C     -0.093200    0.042600    0.120000
O     -0.044500   -0.392000   -1.239800
C      0.999600   -0.611200    0.984500
C      0.820500   -2.108700    1.187400
C      1.082100   -3.017900    0.005500
C      0.937100   -2.654500    2.549700
O     -0.347700   -2.440700    1.960800
H      0.928000    1.950200   -0.121900
H     -0.816000    2.001400   -0.445700
H     -0.219600    1.919000    1.225300
H     -1.064300   -0.310600    0.483800
H      0.770000   -0.050300   -1.626000
H      1.984100   -0.410400    0.537700
H      0.993500   -0.124100    1.965800
H      2.129400   -2.942800   -0.309400
H      0.876100   -4.057100    0.274200
H      0.455000   -2.733700   -0.841700
H      1.217300   -3.698300    2.690300
H      1.186700   -1.996500    3.382000
