13
gdb_2825
O     -0.033300   -0.026700   -0.433700
C     -0.002500    1.113000   -0.044300
C      1.243000    1.917600    0.042900
C      1.176500    3.411200   -0.126300
C      1.516700    2.867000    1.234500
C      0.547200    3.020300    2.349400
O      0.871500    3.111100    3.506200
H     -0.934800    1.644900    0.251100
H      2.119300    1.397200   -0.327800
H      1.958900    3.899100   -0.694700
H      0.189100    3.847900   -0.247500
H      2.552000    2.898100    1.556000
H     -0.522600    3.074000    2.046400
