12
gdb_5296
N     -0.097300    1.317300    0.008000
C      0.053900   -0.032800    0.002500
O      1.127600   -0.609200   -0.008700
C     -1.232000   -0.774100    0.011000
C     -1.404300   -2.119700    0.007900
O     -2.741400   -2.371800    0.018400
C     -3.319700   -1.145800    0.027500
N     -2.485300   -0.161800    0.023900
H      0.723600    1.897800    0.003300
H     -1.016200    1.727200    0.017700
H     -0.735900   -2.961800   -0.000800
H     -4.397800   -1.117600    0.036900
