15
gdb_19674
N      0.049500   -1.190600   -0.059600
C      0.036200   -0.035300   -0.010400
C      0.029600    1.423600    0.059200
C     -0.151800    2.131700    1.406000
C      1.231600    2.257000    2.059400
C      2.247200    1.610100    1.119700
C      1.388800    2.194700   -0.033400
C      0.792600    3.236800    0.998600
H     -0.681000    1.816400   -0.673200
H     -1.063100    2.204800    1.983700
H      1.315400    2.427500    3.124600
H      3.214500    2.115200    1.179700
H      2.390100    0.525100    1.146700
H      1.815400    2.409500   -1.009700
H      0.680100    4.310200    0.986800
