15
gdb_14318
O      0.149100    0.017700   -0.048400
C     -0.027900    1.229300    0.020900
C     -1.214700    2.007700    0.053000
H     -2.209600    1.713900   -0.239200
N     -0.863900    3.397500   -0.007900
H     -1.210400    3.870700   -0.846600
C     -0.851200    4.457600    1.147200
C      0.615900    4.813900    0.806600
C      0.637600    3.482700    0.085500
C      1.114600    2.247500    0.167900
H     -1.628000    5.212500    1.023100
H     -0.963600    3.905900    2.078500
H      0.714500    5.694000    0.163900
H      1.295400    4.908000    1.653100
H      2.130100    1.956000    0.397300
