20
gdb_17895
O      0.185700    1.340700   -0.155100
C      0.044800   -0.058400   -0.013200
C      0.201900   -0.615200    1.431200
C     -1.337500   -0.410100    1.592000
C     -1.415300   -0.593100    0.043400
C     -1.412000   -2.087000   -0.328100
C     -0.618600   -2.912100    0.714500
C      0.545100   -2.113800    1.351400
H     -0.370000    1.776300    0.499200
H      0.696800   -0.490300   -0.779900
H      0.877600   -0.069400    2.095200
H     -1.895200   -1.099200    2.230900
H     -1.588800    0.609000    1.901100
H     -2.165500   -0.027800   -0.516200
H     -2.436500   -2.470800   -0.393900
H     -0.974200   -2.198300   -1.328200
H     -1.306300   -3.214000    1.511000
H     -0.251200   -3.842700    0.271400
H      1.465300   -2.231700    0.765300
H      0.759400   -2.514500    2.348700
