17
gdb_13966
O      0.089200    0.539500    1.515600
C      0.050700    1.377800    0.644900
N      1.085800    1.734200   -0.176400
C      2.366700    1.123500   -0.186900
C      3.136900    0.907500    1.077600
C      3.756500    1.756400    0.001300
C      4.324500    0.856900   -1.103300
C      2.905600    0.228500   -1.312500
H     -0.855400    1.978700    0.422100
H      0.877200    2.407100   -0.899500
H      2.751400    1.445000    1.935700
H      3.535600   -0.077400    1.309300
H      4.015200    2.794300    0.174100
H      4.670800    1.406300   -1.981300
H      5.115400    0.169900   -0.787200
H      2.800100   -0.850600   -1.161100
H      2.486200    0.486900   -2.288700
