17
gdb_7734
C     -0.006800    1.516700    0.034900
C     -0.039600    0.018500   -0.027100
C     -0.131600   -0.666600   -1.180100
C     -0.045000   -2.137300   -1.234900
O     -0.106900   -2.758100   -2.278600
C      0.185700   -2.831500    0.109800
N     -0.367600   -2.116800    1.259800
C      0.058200   -0.721700    1.292800
H      0.899300    1.863100    0.548300
H     -0.031400    1.966400   -0.960200
H     -0.855400    1.902400    0.614200
H     -0.224100   -0.160900   -2.137700
H     -0.225400   -3.842900    0.059500
H      1.272300   -2.934900    0.249500
H     -1.381200   -2.141500    1.196600
H      1.103800   -0.677900    1.639900
H     -0.526800   -0.194000    2.055500
