14
gdb_19676
N      0.022800   -1.202200   -0.085300
C      0.023900   -0.048100   -0.020200
C      0.011900    1.410800    0.076200
C     -0.175300    2.101700    1.419200
C      1.228600    2.188700    2.049600
C      2.168600    1.528900    1.057700
N      1.349100    2.132700   -0.073700
C      0.808300    3.141400    0.972700
H     -0.668500    1.809900   -0.680800
H     -1.078400    2.222000    2.002500
H      1.346900    2.379400    3.108400
H      3.157900    1.991400    1.046200
H      2.264600    0.439600    1.027100
H      0.776900    4.214000    0.853500
