18
gdb_17450
C     -0.073400    1.537900   -0.078700
C      0.088200    0.034300    0.024000
C      1.374100   -0.723600   -0.202000
C      2.554100   -0.005900    0.413100
O      3.070600   -0.801100    1.493400
C      1.909600    0.012900    1.746200
C      1.980600    0.979500    2.885400
C      0.696100   -0.713000    1.188700
H      0.792700    2.074700    0.314100
H     -0.205400    1.839100   -1.123800
H     -0.957100    1.872200    0.476200
H     -0.765300   -0.505500   -0.386300
H      1.442100   -1.562700   -0.883800
H      3.237700    0.706100   -0.035500
H      2.950800    1.482600    2.901100
H      1.190100    1.732600    2.811300
H      1.855700    0.457700    3.841000
H      0.190500   -1.541800    1.670700
