16
gdb_17539
O     -0.159400    1.432100    0.175200
C     -0.110500    0.036900    0.094400
C     -0.426900   -0.823800    1.277200
C     -1.537400   -0.170200    2.115600
C     -2.422400   -0.185800    0.857200
C     -3.871200   -0.315300    0.735100
O     -3.208800    0.914900    0.402100
C     -1.341800   -0.819300    0.017800
H     -0.954000    1.732400   -0.278000
H      0.716000   -0.327700   -0.514600
H      0.233500   -1.610000    1.619400
H     -1.922300   -0.814200    2.909500
H     -1.304000    0.819200    2.514400
H     -4.300400   -0.857700   -0.107000
H     -4.494000   -0.280000    1.628300
H     -1.489800   -1.566800   -0.752800
