15
gdb_2075
O      0.034200   -0.062700    0.120000
C     -0.018200    1.134600   -0.028400
C     -1.325500    1.912400   -0.084600
C     -1.258200    3.104300   -1.055300
C      0.042400    3.878700   -0.851000
O      1.166800    3.037800   -1.052700
C      1.249600    1.990200   -0.104400
H     -2.139000    1.219400   -0.312500
H     -1.497900    2.288700    0.935300
H     -1.288800    2.744300   -2.089800
H     -2.121100    3.764300   -0.913200
H      0.139100    4.691000   -1.576400
H      0.072400    4.321500    0.160400
H      1.441600    2.392700    0.908600
H      2.092000    1.354600   -0.384000
