17
gdb_5261
C     -0.208100    1.411400   -0.397200
O     -0.273700    0.016100   -0.547400
C     -0.989800   -0.613500    0.494800
C     -1.012600   -2.091000    0.258800
C     -0.435800   -2.749600   -0.802000
N     -0.682900   -4.091500   -0.648600
C     -1.409100   -4.303200    0.494600
C     -1.630100   -3.079600    1.081200
H      0.360000    1.806700   -1.243000
H     -1.209500    1.872000   -0.396200
H      0.299700    1.700500    0.537400
H     -0.521900   -0.380400    1.468800
H     -2.017600   -0.209600    0.544100
H      0.122000   -2.365900   -1.638800
H     -0.376200   -4.809100   -1.280700
H     -1.704700   -5.296400    0.792100
H     -2.173800   -2.908200    1.998300
