22
gdb_16663
C     -0.013300    1.568800   -0.093800
C      0.099300    0.047300   -0.008500
C      0.801900   -0.615100   -1.219600
C      1.233500   -1.993800   -0.718200
C      2.554500   -2.073300   -0.000600
C      1.279200   -1.929200    0.796300
C      0.816900   -0.535200    1.254500
C      1.935300    0.342600    1.834300
H      0.970400    2.045800   -0.155400
H     -0.577400    1.865400   -0.984800
H     -0.532200    1.984900    0.776800
H     -0.918800   -0.364000    0.015400
H      0.131000   -0.683200   -2.081400
H      1.666100   -0.019800   -1.543300
H      0.865800   -2.875700   -1.230900
H      3.054400   -3.035800    0.040900
H      3.234000   -1.230800   -0.081800
H      0.973700   -2.782400    1.392600
H      0.071900   -0.665700    2.048000
H      2.695800    0.598200    1.089600
H      1.537100    1.282000    2.230100
H      2.441600   -0.177000    2.654100
