13
gdb_3741
C      0.005400    1.444000    0.042900
N     -0.011000    0.001700   -0.073900
C      0.014500   -0.764400   -1.199600
C     -0.013600   -2.057600   -0.719400
N     -0.069700   -3.271800   -1.400100
N     -0.055700   -2.011200    0.639500
N     -0.059200   -0.759700    1.024100
H      0.919300    1.857700   -0.393500
H     -0.862300    1.882900   -0.458000
H     -0.029900    1.680200    1.106300
H      0.042100   -0.344200   -2.190100
H      0.541000   -3.318800   -2.204300
H      0.118400   -4.041200   -0.769600
