22
gdb_6927
C      0.019300    1.539300   -0.130700
C      0.001400    0.028700    0.015200
C     -1.208400   -0.625800   -0.627600
C      1.313200   -0.722100   -0.043900
C      0.552300   -0.630600    1.263900
C      1.109100    0.127000    2.450600
C      2.061800   -0.726900    3.281600
O      2.522000    0.063600    4.368200
H      0.917600    1.990200    0.297800
H     -0.015300    1.820600   -1.189900
H     -0.849500    1.996100    0.358500
H     -1.251600   -0.405800   -1.701200
H     -1.184800   -1.714000   -0.512000
H     -2.140700   -0.262500   -0.178400
H      1.349000   -1.673300   -0.565500
H      2.224000   -0.136600   -0.131200
H      0.026000   -1.540500    1.549100
H      1.651200    1.022400    2.129800
H      0.297200    0.471000    3.103800
H      1.536800   -1.628300    3.639000
H      2.897800   -1.067200    2.650000
H      3.127700   -0.468900    4.891700
