17
gdb_7080
C      0.002000    1.856800    0.353500
C     -0.041200    0.370500   -0.006200
C      0.837800   -0.471300    0.946000
C      0.916000   -1.934300    0.554100
O      0.610400   -2.840900    1.285400
N     -1.423900   -0.097600   -0.020400
C     -1.870100   -1.034100   -0.898700
O     -1.189300   -1.550200   -1.761800
H      1.028700    2.231200    0.319000
H     -0.602900    2.441300   -0.344800
H     -0.378700    2.029500    1.367300
H      0.323100    0.229100   -1.028400
H      1.858700   -0.064800    0.915200
H      0.474000   -0.406800    1.976800
H      1.288300   -2.121100   -0.475500
H     -2.049500    0.218800    0.704600
H     -2.940800   -1.271900   -0.748400
