16
gdb_3061
C      0.004800    1.549300   -0.047500
C     -0.022300    0.014900    0.081800
C     -1.373800   -0.534900    0.061000
C     -2.501600   -0.962000    0.036900
C     -3.837400   -1.489500    0.037600
C     -4.396800   -2.116700   -1.197800
N     -4.060600   -2.955900   -0.043300
H      1.035700    1.914800   -0.026300
H     -0.456300    1.868400   -0.986000
H     -0.544000    2.017700    0.774000
H      0.563000   -0.430800   -0.732900
H      0.480700   -0.282700    1.011100
H     -4.532800   -0.995700    0.712000
H     -5.459500   -2.024900   -1.404200
H     -3.757000   -2.143800   -2.074700
H     -3.164000   -3.409700   -0.202600
