15
gdb_4101
N     -0.046400    1.367800    0.203300
C     -0.021000    0.010200    0.067000
N     -1.078100   -0.719000   -0.001700
C     -0.703500   -2.129000   -0.082800
C      0.837400   -2.221000    0.077300
C      1.251500   -0.769800    0.027300
N      2.475700   -0.422500   -0.068000
O      2.654600    0.974000   -0.108400
H      0.792400    1.870900   -0.029200
H     -0.932500    1.810100    0.017200
H     -1.232200   -2.698100    0.690300
H     -1.034300   -2.537600   -1.046400
H      1.116100   -2.661000    1.040400
H      1.324700   -2.811500   -0.701800
H      3.610100    1.054700   -0.188100
