20
gdb_9900
C      0.254700    1.439000    0.275100
C     -0.267400    0.082800   -0.234000
C      0.494300   -0.441800   -1.363400
C      1.141900   -0.858500   -2.291600
C      1.891600   -1.338800   -3.424800
C      1.534100   -0.693800   -4.756100
C      3.341200   -1.742100   -3.193100
C      2.304300   -2.804000   -3.428300
H      1.294000    1.355900    0.604600
H      0.212600    2.192400   -0.516300
H     -0.348100    1.790000    1.118400
H     -0.249900   -0.646200    0.586800
H     -1.322600    0.182700   -0.520300
H      1.703300    0.387200   -4.724100
H      2.144100   -1.110700   -5.563800
H      0.481000   -0.863000   -5.001800
H      4.045700   -1.523900   -3.988800
H      3.739300   -1.628200   -2.192000
H      1.996000   -3.413800   -2.587600
H      2.297200   -3.315100   -4.385300
