18
gdb_17796
C      0.028000    0.993400   -0.418300
C      1.462900    1.393200   -0.025700
C      1.426300    0.112300    0.840400
O      0.060800   -0.161400    0.450500
C      2.366400   -1.000200    0.428100
C      1.873200   -2.442700    0.689200
C      1.852800   -2.557900   -0.846700
O      2.358200   -1.212700   -1.002400
H     -0.763100    1.694500   -0.127200
H     -0.108500    0.706400   -1.466700
H      2.189200    1.368500   -0.838100
H      1.554500    2.326700    0.530500
H      1.506000    0.270800    1.925900
H      3.379400   -0.771900    0.790600
H      2.586100   -3.091400    1.199100
H      0.897800   -2.506200    1.171400
H      2.534700   -3.297700   -1.282400
H      0.859700   -2.670800   -1.295200
