17
gdb_15048
C      0.051000    1.439400    0.251000
C      0.074300   -0.066400   -0.013200
C      0.704400   -0.453000   -1.374400
C      2.095200    0.002800   -1.461300
N      3.187700    0.372700   -1.532400
C      0.584100   -1.954500   -1.614700
C      1.623600   -2.781400   -2.236300
O      1.404200   -2.799000   -0.819500
H      1.062500    1.856300    0.263400
H     -0.522000    1.970200   -0.517300
H     -0.411900    1.651900    1.218700
H      0.625100   -0.588500    0.775500
H     -0.946600   -0.465800   -0.004200
H      0.148800    0.055600   -2.175000
H     -0.454200   -2.281400   -1.697700
H      1.336400   -3.690200   -2.762300
H      2.558700   -2.324700   -2.552000
