16
gdb_8467
C     -0.082800    1.483800    0.036800
C      0.054000    0.000200    0.059400
C      1.180400   -0.866500   -0.375400
C      0.621500   -0.990100    1.058200
C      1.440100   -0.869900    2.308600
C     -0.726000   -1.653400    0.925300
O     -1.331000   -2.535300    1.443500
O     -1.177100   -0.786900   -0.062100
H      0.879700    1.955700    0.253700
H     -0.412500    1.826100   -0.949800
H     -0.814200    1.818900    0.778000
H      1.011300   -1.649500   -1.107900
H      2.161500   -0.400300   -0.415200
H      2.233500   -0.126200    2.186500
H      0.822300   -0.572700    3.161400
H      1.914800   -1.824900    2.556600
