17
gdb_14961
C     -0.144900    1.460400   -0.029800
N     -0.097900    0.008200   -0.055900
C      0.595400   -0.589000   -0.923900
C      0.625200   -2.097400   -1.018600
C      2.003100   -2.597000   -1.458200
O      2.412000   -1.881200   -2.619500
C      2.519200   -0.527200   -2.336900
O      1.290600    0.067400   -1.914900
H      0.640500    1.948100   -0.617000
H     -1.117400    1.796300   -0.410400
H     -0.080300    1.794800    1.010700
H      0.319600   -2.520200   -0.060200
H     -0.107900   -2.401100   -1.776100
H      2.744600   -2.457800   -0.654800
H      1.983000   -3.654700   -1.728500
H      3.273800   -0.352400   -1.550600
H      2.801800   -0.013400   -3.256900
