12
gdb_21022
C     -0.009000    1.454600    0.123400
N     -0.046000    0.005000    0.004200
C     -1.179200   -0.715900   -0.197000
N     -1.208000   -2.002500   -0.229000
C      0.001000   -2.635300    0.064400
O      0.096600   -3.763900    0.461600
N      1.213000   -1.868100   -0.166600
N      1.179000   -0.617000   -0.131400
H      0.973900    1.790200   -0.207300
H     -0.780600    1.901600   -0.508300
H     -0.167300    1.763600    1.160700
H     -2.086100   -0.135900   -0.372600
