19
gdb_7375
C     -0.005900    1.587400    0.016700
N      0.039500    0.096600   -0.009400
H      0.601600   -0.257400    0.767600
H     -0.895800   -0.295800    0.123500
C      0.624600   -0.525000   -1.294300
C      0.628800   -2.027000   -1.230200
C     -0.745500   -2.681200   -1.326100
C      1.649200   -2.519100   -2.406100
O      2.562300   -1.700400   -2.624000
O      1.371400   -3.622500   -2.877400
H      1.008700    1.960500   -0.124100
H     -0.636200    1.925900   -0.805700
H     -0.410100    1.934400    0.968900
H      0.003800   -0.134200   -2.105900
H      1.650700   -0.167900   -1.405500
H      1.133200   -2.336700   -0.300100
H     -1.371900   -2.561700   -0.426400
H     -1.306500   -2.291400   -2.184100
H     -0.594200   -3.747300   -1.506100
