16
gdb_15818
C      0.401400    0.345800    0.589300
O     -0.952200    0.536100    0.221500
C     -1.704500   -0.637800    0.178700
C     -1.413900   -1.514700   -1.042200
O     -0.623500   -1.209100   -1.903300
C     -2.192000   -2.798800   -1.152300
C     -2.148700   -3.813800   -0.078400
O     -3.290600   -2.989100   -0.255900
H      0.946700   -0.248400   -0.152300
H      0.852500    1.338400    0.652900
H      0.480500   -0.141700    1.574200
H     -1.590100   -1.239500    1.097600
H     -2.762800   -0.353800    0.133600
H     -2.346100   -3.138100   -2.175400
H     -2.273300   -4.860800   -0.348700
H     -1.564300   -3.627700    0.820900
