13
gdb_5276
C     -0.026400    1.512200   -0.073500
C     -0.024600    0.002800    0.052900
O     -0.039800   -0.573900    1.121600
C     -0.003000   -0.779100   -1.192000
C      0.004400   -2.119000   -1.445900
N      0.026400   -2.332700   -2.810300
C      0.031300   -1.137200   -3.314300
O      0.014400   -0.139800   -2.411400
H      0.860500    1.852200   -0.618600
H     -0.897200    1.847900   -0.646600
H     -0.043300    1.952000    0.923700
H     -0.004700   -2.927400   -0.733300
H      0.046900   -0.852900   -4.355200
