9
gdb_2610
N     -0.113600   -1.175400   -0.003100
C     -0.047600   -0.023300    0.002400
C      0.014600    1.443400    0.009600
C      1.379600    1.956300   -0.000600
C      2.501300    2.397100   -0.008900
C      3.771700    2.900200   -0.018400
N      4.849600    3.331100   -0.026300
H     -0.533200    1.823600   -0.862400
H     -0.516400    1.814200    0.896000
