14
gdb_18947
N     -0.097300   -1.227800   -0.138600
C     -0.075100   -0.073000   -0.087400
C     -0.037100    1.376600   -0.012900
C      0.040800    2.037000    1.378300
C      1.556700    1.740900    1.577500
C      1.784200    3.225400    1.840900
N      0.700000    3.299700    0.767000
C      1.337700    2.070100    0.071200
H     -0.745900    1.839300   -0.704500
H     -0.741000    2.120300    2.133900
H      2.019000    0.851700    2.013700
H      1.468100    3.635100    2.805200
H      2.735200    3.667400    1.528000
H      2.084500    2.192400   -0.713900
