14
gdb_5775
C      0.134800    1.562200    0.039100
O      1.167900    0.597800   -0.155000
C     -0.157300    0.113600    0.051200
C     -0.381600   -0.635400    1.300300
C      0.387300   -0.806800    2.424900
N     -0.259400   -1.600100    3.343800
C     -1.406700   -1.910800    2.788800
N     -1.533300   -1.356600    1.547400
H      0.166600    2.095600    0.987100
H     -0.118600    2.158900   -0.836700
H     -0.626100   -0.306700   -0.841700
H      1.375300   -0.413600    2.605600
H     -2.179600   -2.526400    3.224100
H     -2.322600   -1.447300    0.929400
