20
gdb_6900
C      0.024800    1.205700   -0.380300
O     -0.097500    0.073400    0.459700
C     -1.310500   -0.592800    0.299000
C     -1.438800   -1.709100   -0.736600
C     -0.309800   -2.049300   -1.684600
C     -1.381400   -2.030700    0.739100
C     -0.185500   -2.703300    1.371200
O     -2.623200   -2.460400    1.245700
H      0.999500    1.655100   -0.175500
H     -0.032100    0.934500   -1.443300
H     -0.760400    1.947200   -0.169400
H     -2.194300    0.021300    0.481300
H     -2.438000   -1.815400   -1.150100
H      0.656800   -1.729600   -1.288000
H     -0.258500   -3.127100   -1.873500
H     -0.452300   -1.552400   -2.650100
H      0.753500   -2.299100    0.991300
H     -0.193500   -2.541900    2.456300
H     -0.213100   -3.782600    1.191100
H     -2.661000   -2.211400    2.176700
