10
gdb_3926
O     -0.043000   -0.034700   -0.000100
C     -0.007100    1.157200    0.008800
N      1.179600    1.924500    0.002200
C      1.278900    3.289900    0.011800
C      2.619400    3.530600   -0.000800
N      3.280400    2.323700   -0.017000
N      2.428300    1.359000   -0.015400
H     -0.893700    1.816700    0.023300
H      0.414200    3.931800    0.026000
H      3.153600    4.466100    0.000600
