17
gdb_19071
C     -0.077300    1.569200    0.052700
C      1.461400    1.467100   -0.002600
C      2.090800    1.278500    1.388300
C      1.407400    0.128000    2.121800
N      0.009400    0.324700    2.557200
C      0.297700   -0.550000    1.401900
C      0.040000    0.034500    0.016600
O      1.341100    0.160900   -0.641900
H     -0.544900    2.029400    0.920700
H     -0.487100    1.957300   -0.880900
H      2.021600    2.175900   -0.618300
H      3.149400    1.028900    1.256900
H      2.037700    2.209100    1.966100
H      2.043500   -0.474000    2.764900
H     -0.175900   -0.243500    3.379900
H      0.167700   -1.622300    1.516900
H     -0.665900   -0.548200   -0.579600
