20
gdb_14977
C      0.073000    1.367200   -0.121800
O     -0.126800   -0.009400    0.095800
C      0.611700   -0.554100    1.177800
C      0.026400   -1.932300    1.476300
C      0.696800   -2.565400    2.703700
C      2.194100   -2.401400    2.676500
C      2.824500   -1.564600    1.853400
C      2.114700   -0.664400    0.872900
H      1.090900    1.601300   -0.466300
H     -0.632100    1.676100   -0.898000
H     -0.124900    1.956000    0.788400
H      0.479500    0.089400    2.066100
H     -1.054300   -1.842300    1.620500
H      0.181600   -2.568600    0.596500
H      0.296800   -2.121900    3.627900
H      0.439400   -3.630500    2.760800
H      2.769600   -3.006400    3.373400
H      3.910000   -1.502500    1.875000
H      2.232100   -1.043800   -0.152800
H      2.584200    0.326900    0.882300
