14
gdb_4472
C     -0.048100    1.522700    0.128800
C      0.008100    0.038500    0.023100
C     -0.031800   -0.724400   -1.093400
N     -0.132000   -0.434600   -2.444500
O      0.053500   -2.074500   -0.664200
C      0.135700   -1.968400    0.673000
O      0.228900   -3.101300    1.372100
N      0.116400   -0.776000    1.158500
H      0.850400    1.911600    0.620000
H     -0.131000    1.971300   -0.863300
H     -0.905700    1.837100    0.733300
H      0.672700   -0.732800   -2.985700
H     -0.971700   -0.803100   -2.878800
H      0.222700   -3.840400    0.752400
