16
gdb_9624
C     -0.113600    1.631500    0.053400
C     -0.160200    0.124100    0.114800
C     -1.398600   -0.534500   -0.472900
O     -1.509000   -0.263300   -1.857800
O      1.048000   -0.556700   -0.241900
C      0.625600   -0.659100    1.114000
C      1.457100    0.008900    2.164700
O      2.297300    0.846300    1.958800
H      0.860500    2.003100    0.370200
H     -0.307900    1.949200   -0.974600
H     -0.892100    2.064500    0.690400
H     -1.367900   -1.615700   -0.274400
H     -2.301600   -0.127300   -0.006200
H     -0.723000   -0.630100   -2.279100
H      0.238700   -1.636700    1.409200
H      1.219100   -0.336200    3.196400
