16
gdb_5088
C     -0.071900    1.527400   -0.027900
C     -0.009700    0.033800    0.009200
C      0.050400   -0.831700   -1.038500
O      0.075600   -2.122200   -0.622600
C      0.048100   -2.090800    0.759600
N      0.057700   -3.277100    1.495500
C     -0.012200   -0.797800    1.186700
N     -0.146500   -0.354800    2.510600
H      0.808600    1.987600    0.439100
H     -0.123900    1.894500   -1.056800
H     -0.950300    1.902500    0.509900
H      0.082700   -0.676600   -2.105400
H     -0.787300   -3.827900    1.371900
H      0.849600   -3.870500    1.267200
H      0.029100   -1.114500    3.158800
H      0.467200    0.421500    2.728100
