16
gdb_9215
C     -0.051100    1.412600   -0.402500
N     -0.043300    0.045000    0.085400
C     -1.209600   -0.681600    0.133400
O     -2.311700   -0.201900   -0.068400
N     -1.022800   -2.024200    0.440200
C     -2.167000   -2.863300    0.723500
C     -2.188200   -4.106300   -0.149400
O     -2.600000   -5.178700    0.206100
H      0.709100    2.000100    0.120000
H      0.133000    1.477000   -1.483000
H     -1.035500    1.833300   -0.198000
H      0.822200   -0.464500    0.004600
H     -0.147300   -2.289600    0.863000
H     -2.235700   -3.161000    1.776100
H     -3.053200   -2.261700    0.482300
H     -1.785700   -3.935000   -1.174500
