17
gdb_18151
C      0.057200    1.613800   -0.221600
N      0.265600    0.186400   -0.040500
C      1.493400   -0.498300   -0.349800
C      2.755400    0.305600    0.033600
C      2.226800    0.341400    1.511300
C      2.105500    1.649400    2.248400
O      1.106200    2.047200    2.792000
C      0.960000   -0.417600    1.066500
H      0.952400    2.239900   -0.101300
H     -0.333100    1.778300   -1.231000
H     -0.686000    1.954900    0.502700
H      1.473800   -1.323000   -1.054200
H      3.674800   -0.273300   -0.066200
H      2.891600    1.266100   -0.472300
H      2.870000   -0.300300    2.128000
H      3.049500    2.244600    2.280500
H      0.439400   -1.158500    1.662800
