13
gdb_128
C      0.011300    1.562600   -0.108000
C     -0.017200    0.033100   -0.159700
C     -1.377900   -0.549500    0.262200
C     -1.357300   -2.059300    0.308200
O     -2.101400   -2.783700   -0.300800
H      0.986800    1.949200   -0.418100
H     -0.745900    1.995000   -0.770600
H     -0.187600    1.927700    0.905500
H      0.219800   -0.307700   -1.174800
H      0.768000   -0.372600    0.491400
H     -1.620700   -0.191800    1.274000
H     -2.179600   -0.230500   -0.410700
H     -0.564000   -2.483300    0.970100
