16
gdb_11333
C     -0.078100    1.447500   -0.058800
N     -0.007700   -0.001000   -0.116200
C     -1.066000   -0.685400   -0.033300
O     -2.344200   -0.146900    0.113400
C     -3.290700   -1.199100    0.195500
C     -2.486200   -2.468100    0.052900
N     -3.099000   -3.693500    0.146400
C     -1.190100   -2.135600   -0.075700
H      0.688700    1.816300    0.632200
H      0.161700    1.867300   -1.044600
H     -1.051400    1.843800    0.253300
H     -3.818900   -1.156500    1.158500
H     -4.038400   -1.086600   -0.603700
H     -4.062300   -3.740100   -0.150500
H     -2.558000   -4.488600   -0.158900
H     -0.338000   -2.787700   -0.190400
