12
gdb_856
N      0.021700    1.318900    0.148300
C     -0.043200   -0.049200    0.062300
N     -1.111400   -0.790000    0.084300
C     -0.611300   -2.089200    0.050600
N     -1.496400   -3.158000    0.131800
C      0.743000   -2.059200   -0.003300
O      1.120200   -0.710500    0.007900
H      0.829000    1.731300   -0.295500
H     -0.847800    1.770900   -0.091700
H     -2.414100   -2.902900   -0.207600
H     -1.165900   -4.002700   -0.313000
H      1.538200   -2.779600   -0.041000
