16
gdb_8850
C      0.286000    1.451300    0.138600
O      0.469400    0.027400    0.095700
C      0.283400   -0.540100   -1.107800
O     -0.013100    0.068800   -2.106900
C      0.506900   -2.040600   -1.062100
C     -0.785200   -2.773600   -1.491200
C      1.612400   -2.409900   -2.049400
O      2.487600   -3.197100   -1.808300
H      0.997100    1.948800   -0.525200
H     -0.728200    1.717000   -0.168700
H      0.461800    1.739900    1.174500
H      0.817200   -2.353200   -0.064100
H     -0.618500   -3.853700   -1.501500
H     -1.597500   -2.554900   -0.792800
H     -1.094100   -2.449700   -2.488400
H      1.520700   -1.908800   -3.036900
