18
gdb_13251
O     -0.248000    0.114300    0.099900
C     -0.036400    1.296700    0.016900
C      1.326100    1.930500   -0.124400
C      1.416800    2.827100   -1.371700
C      2.712900    3.620700   -1.401400
C      2.818100    4.806000   -2.387400
C      3.029900    5.656200   -1.119200
O      2.831300    4.510100   -0.263200
H     -0.878300    2.029900    0.035500
H      1.497600    2.564500    0.756600
H      2.083100    1.140900   -0.136200
H      1.348400    2.220200   -2.283700
H      0.573400    3.529500   -1.385000
H      3.571400    2.934500   -1.440300
H      3.652200    4.773000   -3.089200
H      1.896200    5.016700   -2.933700
H      4.035800    6.078600   -1.003800
H      2.292100    6.443800   -0.927400
