17
gdb_3158
C     -0.292000    1.463400    0.064600
C      0.117300    0.005900   -0.012000
O      1.339400   -0.185700   -0.773400
C      1.987800   -0.869700    0.320200
C      0.770300   -0.649700    1.209000
C      0.727900   -0.216500    2.641800
C      0.169100   -1.561600    2.230000
H      0.497400    2.066400    0.522100
H     -0.487600    1.850800   -0.940200
H     -1.208400    1.577700    0.654700
H     -0.697300   -0.594800   -0.444100
H      2.212800   -1.916700    0.074500
H      2.914700   -0.367600    0.627600
H      1.661100   -0.196300    3.196500
H      0.027800    0.563700    2.923100
H     -0.909400   -1.688000    2.230500
H      0.721400   -2.454300    2.507000
