20
gdb_8205
C     -0.037700    1.523600   -0.053700
C     -0.008100    0.016000    0.010100
C      1.283900   -0.744300   -0.276200
C      0.660400   -0.783700    1.102200
C      1.346300   -0.237800    2.321700
O     -0.124800   -1.915300    1.413900
C     -1.064600   -2.119300    0.362000
C     -1.292100   -0.745200   -0.299700
H      0.904100    1.960400    0.292600
H     -0.199600    1.872300   -1.080700
H     -0.844600    1.933100    0.565600
H      1.262400   -1.633300   -0.898400
H      2.181800   -0.145500   -0.394900
H      1.917300    0.662200    2.079800
H      0.614600    0.009900    3.097500
H      2.039600   -0.977600    2.735000
H     -0.669200   -2.842000   -0.365700
H     -1.970600   -2.549400    0.798300
H     -2.137900   -0.221400    0.161200
H     -1.502700   -0.838400   -1.370300
