18
gdb_19793
O     -0.165200    1.455700    0.168900
C     -0.005900    0.044300    0.039200
C      0.748700   -0.616100    1.206100
C      0.267200   -0.346100    2.611100
C     -0.187900   -1.589100    1.888700
C     -1.502700   -1.594300    1.125000
C     -2.362400   -0.355600    1.087500
C     -1.383800   -0.621200   -0.027900
H      0.706400    1.832600    0.325900
H      0.534700   -0.181600   -0.892500
H      1.797900   -0.850300    1.057200
H      0.989800   -0.477600    3.410100
H     -0.424200    0.470400    2.779200
H      0.170900   -2.545800    2.251400
H     -1.987500   -2.555500    0.996600
H     -3.413200   -0.493100    0.854200
H     -2.173200    0.464200    1.768500
H     -1.778400   -0.851300   -1.011000
