14
gdb_20777
C      0.110600    1.501200    0.025100
C      0.064300    0.010600    0.065800
N      0.068800   -0.734000   -1.006100
O      0.020400   -2.032600   -0.567900
N     -0.005600   -2.091400    0.795200
C      0.014300   -0.854000    1.208300
C      0.035400   -0.486500    2.661300
O      1.176000    0.296200    2.988900
H      0.877700    1.871300    0.710000
H      0.319700    1.848300   -0.987800
H     -0.846100    1.927800    0.346400
H     -0.829100    0.139900    2.904300
H     -0.033500   -1.400600    3.264000
H      1.956000   -0.254000    2.858700
