17
gdb_11530
C     -0.242500    1.339700    0.201300
N     -0.033500   -0.080400   -0.043400
C     -0.051300   -0.990200    1.084800
C     -1.417000   -1.123300    1.724500
C     -1.565700   -1.426700    3.152600
O     -1.788400   -0.105800    2.658200
C      0.226000   -0.524100   -1.308200
O      0.275400    0.164700   -2.304400
H      0.517900    1.725100    0.891100
H     -0.162000    1.852900   -0.756700
H     -1.226500    1.523700    0.641400
H      0.276000   -1.975200    0.732100
H      0.662000   -0.655000    1.850400
H     -2.217900   -1.417900    1.044600
H     -2.451600   -1.954000    3.501800
H     -0.677700   -1.549400    3.771800
H      0.391900   -1.620100   -1.328400
