12
gdb_3806
C      0.007000    1.378400   -0.028000
O      0.021600   -0.047900   -0.033400
C      0.620200   -0.612800   -1.080700
N      1.178100    0.064300   -2.075500
N      1.632800   -0.953600   -2.862700
C      1.329900   -2.140900   -2.310200
N      0.684200   -1.969600   -1.173300
H      1.025600    1.779400   -0.028000
H     -0.522200    1.766800   -0.904200
H     -0.512800    1.667100    0.886000
H      2.116400   -0.744900   -3.719500
H      1.592100   -3.087600   -2.758600
