18
gdb_19972
C     -0.114400    1.577400   -0.001400
C      0.129900    0.080500   -0.032500
O      1.362500   -0.260400   -0.710200
C      1.891200   -0.925800    0.451700
C      0.610900   -0.641300    1.264200
C      0.736700    0.161400    2.532000
C      1.841600   -0.028800    3.480900
O      1.802500    1.111500    2.620600
H      0.700400    2.100600    0.504300
H     -0.188700    1.955300   -1.025900
H     -1.055300    1.807000    0.511500
H     -0.718600   -0.427500   -0.511800
H      2.107900   -1.983500    0.260000
H      2.793400   -0.428600    0.826000
H      0.021800   -1.537000    1.482900
H     -0.208000    0.528600    2.937900
H      1.690200    0.178300    4.539000
H      2.624200   -0.753200    3.257900
