14
gdb_3654
C      0.135100    1.549100    0.107400
C      0.045900    0.065900   -0.020500
C     -0.058700   -0.780800   -1.105900
C     -0.123600   -0.465800   -2.565100
N     -0.111000   -2.067900   -0.646300
N     -0.046600   -2.071900    0.652500
N      0.046100   -0.785400    1.038200
H      0.964300    1.853100    0.755700
H      0.297800    2.000500   -0.873800
H     -0.784000    1.981200    0.520200
H      0.465000    0.422500   -2.814000
H      0.265500   -1.308500   -3.141200
H     -1.151900   -0.284600   -2.899300
H      0.118400   -0.570800    2.020200
