19
gdb_7184
C      0.214400    1.415900   -0.016700
N      0.122400   -0.041100    0.006000
C      0.736400   -0.633400    1.201000
C      1.223900   -2.053000    0.903500
O      2.086800   -2.062000   -0.212300
C     -1.244600   -0.485900   -0.223600
C     -1.656800   -0.305000   -1.676600
O     -2.777100   -0.069900   -2.042800
H      1.261400    1.722200    0.053200
H     -0.187600    1.800900   -0.959500
H     -0.345700    1.893900    0.806500
H      1.608100   -0.023000    1.456600
H      0.059000   -0.624300    2.072700
H      1.782300   -2.435600    1.764900
H      0.366500   -2.732200    0.753900
H      1.690300   -1.435600   -0.834200
H     -1.309400   -1.564000   -0.025200
H     -1.988100    0.008500    0.424800
H     -0.814400   -0.437100   -2.394500
