22
gdb_7836
C      0.383400    1.417900    0.406700
C      0.043400   -0.028000    0.038500
C      0.700400   -0.462800   -1.266200
O      0.469900   -0.965400    1.028100
C     -0.244300   -0.930000    2.225600
C      0.211300   -1.867600    3.299800
C      0.380000   -0.370100    3.488000
C      1.767900    0.228900    3.470800
H      1.466600    1.546300    0.497800
H      0.019500    2.100300   -0.368400
H     -0.079300    1.706200    1.354200
H     -1.051800   -0.113900   -0.066200
H      1.790000   -0.397900   -1.181900
H      0.436400   -1.497200   -1.500600
H      0.379100    0.178000   -2.092600
H     -1.318600   -0.795600    2.090800
H     -0.531200   -2.404500    3.879800
H      1.112100   -2.432900    3.083300
H     -0.314100    0.101200    4.180200
H      2.369400   -0.220000    2.675900
H      1.735500    1.309400    3.292500
H      2.281500    0.063200    4.424100
