20
gdb_9150
C      0.016200    1.482700    0.242300
C      0.117100   -0.036000    0.076100
C      0.674600   -0.487400   -1.296700
C      2.133400   -0.040900   -1.527500
C      0.560100   -1.938500   -1.444900
C      0.486600   -3.136400   -1.545500
C      0.368100   -4.582500   -1.678900
O      1.657700   -5.181000   -1.596100
H      0.997200    1.966600    0.220400
H     -0.593600    1.929000   -0.551700
H     -0.451200    1.735200    1.199100
H      0.748200   -0.461600    0.865700
H     -0.875200   -0.482200    0.203600
H      0.053700   -0.018800   -2.075000
H      2.788100   -0.456200   -0.755100
H      2.494500   -0.390500   -2.497900
H      2.217300    1.048900   -1.504200
H     -0.297200   -4.965300   -0.887400
H     -0.116600   -4.818300   -2.640800
H      1.537000   -6.131600   -1.688300
