13
gdb_18180
N      0.081700   -1.101700    0.051200
C      0.010600    0.051600    0.033000
C     -0.047100    1.487200    0.021700
N     -1.143800    2.133800    0.096500
C     -0.794800    3.564800    0.053300
C      0.733300    3.605200    0.033700
C      1.468100    2.961300    1.146700
N      1.188500    2.195300   -0.102600
H     -1.222000    4.007100   -0.853800
H     -1.250100    4.077200    0.907400
H      1.241300    4.325500   -0.597800
H      2.518100    3.183300    1.303300
H      0.914600    2.672900    2.036500
