16
gdb_12228
C      0.140500    1.591000    0.210200
C     -0.049500    0.091500    0.182800
O      0.632200   -0.540200   -0.944300
C      1.380200   -1.400200   -0.075000
C      2.870000   -1.224300   -0.237000
O      3.656800   -1.427600    0.658400
C      0.751000   -0.770000    1.199000
O      1.604800   -0.036200    2.029800
H      1.196700    1.848300    0.308000
H     -0.252900    2.028800   -0.712100
H     -0.398500    2.026000    1.057900
H     -1.114500   -0.170400    0.158700
H      1.137700   -2.464100   -0.222600
H      3.192000   -0.878000   -1.242200
H      0.132900   -1.469300    1.775600
H      2.432000   -0.531000    2.112000
