10
gdb_1382
N     -0.239400    1.313500    0.011600
C     -0.027200    0.076800    0.002600
O     -1.127900   -0.757200    0.007800
C     -0.914500   -2.104900   -0.001400
O      0.147700   -2.653100   -0.013800
C     -2.280800   -2.809300    0.006700
O     -2.365300   -4.003000    0.000800
H      0.644900    1.820300    0.006500
H      0.915800   -0.469300   -0.009000
H     -3.151400   -2.125700    0.018200
