10
gdb_23835
F      0.050300    0.089400    0.185600
C     -0.021500    1.387300    0.058700
N     -1.156700    1.947100   -0.042300
C     -1.117000    3.328000   -0.173000
N     -0.089000    4.096500   -0.203800
O      1.152900    3.459600   -0.091100
C      1.268700    2.093900    0.044600
N      2.377900    1.499400    0.147700
H     -2.070600    3.836500   -0.261400
H      3.155500    2.161900    0.116600
