19
gdb_1999
C     -0.118000    1.469800   -0.101400
C      0.029800   -0.051200   -0.034800
O      0.937200   -0.520000   -1.030400
C      0.571700   -0.519400    1.318600
C      0.557700   -2.021500    1.506000
C      1.674800   -2.875500    0.969000
C      1.527500   -2.679900    2.457500
H      0.847900    1.955300    0.072000
H     -0.483600    1.783700   -1.086300
H     -0.830700    1.832500    0.646600
H     -0.962400   -0.510100   -0.189100
H      0.602200   -0.245100   -1.889500
H      1.597500   -0.141800    1.420900
H     -0.021000   -0.043400    2.110500
H     -0.436100   -2.462800    1.468000
H      1.427400   -3.844800    0.550200
H      2.486600   -2.368100    0.461300
H      2.250200   -2.045800    2.961600
H      1.178100   -3.512900    3.057800
