17
gdb_20011
O      0.629800   -0.106500   -0.589000
C      0.296400    0.998000   -0.232700
N      1.085000    1.867200    0.497700
C      2.501000    2.058800    0.286000
C      1.530900    3.192300    0.086800
C      1.227100    3.709800   -1.280600
C      0.126500    4.726900   -1.478300
C      1.566900    5.140100   -1.624300
H     -0.718800    1.407600   -0.395200
H      3.126900    2.027600    1.173500
H      2.929900    1.596200   -0.599700
H      1.465700    3.941100    0.876400
H      1.355900    2.976700   -2.072700
H     -0.484300    4.649200   -2.370500
H     -0.411000    5.066400   -0.599000
H      1.999300    5.758000   -0.844100
H      1.951500    5.346500   -2.616500
