20
gdb_8679
C      0.124700    1.554400    0.051900
C     -0.012400    0.031100    0.034600
C     -1.474400   -0.499200   -0.039300
N     -2.233700   -0.028100   -1.209500
C     -1.455800   -2.050500   -0.056600
C     -2.833100   -2.713100   -0.014500
C     -2.194200   -0.037900    1.166800
N     -2.722800    0.332600    2.125400
H      1.177900    1.841200    0.118400
H     -0.279100    2.009100   -0.858600
H     -0.396200    1.990600    0.909800
H      0.518200   -0.384500   -0.831600
H      0.465800   -0.391000    0.926100
H     -2.317900    0.983400   -1.197000
H     -1.719400   -0.273100   -2.051900
H     -0.923500   -2.345000   -0.970700
H     -0.842500   -2.394600    0.783000
H     -2.732600   -3.800300   -0.082500
H     -3.353300   -2.481300    0.919700
H     -3.456800   -2.367500   -0.841600
