19
gdb_7517
C      0.005200    1.398000   -0.358500
C      0.069800   -0.047500    0.073900
N      1.398700   -0.688500    0.116200
C      0.636500   -0.531800    1.366800
C      1.239300    0.404400    2.393200
C     -0.011500   -1.784600    1.966000
C      0.945400   -2.678700    2.613500
C      1.745800   -3.407800    3.135500
H      0.853900    1.969600    0.021900
H      0.022200    1.467600   -1.451600
H     -0.918700    1.870000   -0.006500
H     -0.747200   -0.654000   -0.319400
H      1.354100   -1.649000   -0.215700
H      1.776900    1.222400    1.912600
H      0.463600    0.827000    3.042300
H      1.949300   -0.138800    3.024900
H     -0.776800   -1.483500    2.694300
H     -0.541700   -2.333400    1.177100
H      2.448600   -4.055000    3.598800
