18
gdb_17459
C     -0.049200    1.493200   -0.036100
C      0.025300   -0.006100    0.039600
C     -0.833300   -0.814700    0.980000
C      0.680100   -0.821800    1.130300
C      1.509300   -1.874500    0.428800
C      0.830500   -2.935500   -0.418400
C      1.276700   -1.639500   -1.042800
O      0.342100   -0.601700   -1.208100
H      0.901500    1.914600   -0.378800
H     -0.831100    1.806500   -0.736100
H     -0.285100    1.916200    0.944500
H     -1.391200   -0.265100    1.732000
H     -1.344700   -1.693500    0.606500
H      1.113900   -0.351300    2.005000
H      2.495200   -2.077700    0.829000
H      1.419200   -3.816200   -0.654800
H     -0.228400   -3.129300   -0.298300
H      2.055600   -1.630300   -1.798100
