14
gdb_16719
N      0.053700   -1.126200    0.117400
C     -0.012300    0.030100    0.073500
C     -0.038000    1.446100    0.009700
C     -1.126400    2.230700    0.016400
C     -0.724100    3.657100    0.023800
C      0.075800    4.075400    1.216200
N      0.760000    3.699700   -0.019600
C      1.225900    2.299800   -0.064900
H     -2.152800    1.888100    0.030200
H     -1.276800    4.386200   -0.561000
H      0.154600    5.129200    1.468000
H      0.097900    3.390900    2.061600
H      1.922200    2.095300    0.755800
H      1.764800    2.122900   -1.003000
