22
gdb_9774
C     -0.177800    1.263400   -0.060400
O     -0.054700   -0.123300    0.154200
C      0.786700   -0.561500    1.239000
C      2.200000    0.011400    1.120400
C      0.102300   -0.271700    2.594100
C     -1.001700   -1.333100    2.677800
C     -0.301300   -2.608100    2.167000
C      0.748400   -2.111300    1.136900
H      0.757200    1.722700   -0.410700
H     -0.933600    1.390000   -0.840600
H     -0.514400    1.810300    0.832200
H      2.221500    1.095300    1.269200
H      2.850800   -0.436500    1.877100
H      2.621100   -0.207400    0.133700
H      0.831700   -0.420000    3.400900
H     -0.261500    0.756100    2.678200
H     -1.418100   -1.446700    3.682600
H     -1.820800   -1.056600    2.006300
H      0.199100   -3.113500    3.000600
H     -1.002000   -3.328500    1.736900
H      0.482300   -2.375500    0.111300
H      1.735600   -2.536300    1.338200
