10
gdb_249
N     -0.111000    1.287900   -0.023100
C      0.092400   -0.048800   -0.006200
O      1.157200   -0.613100   -0.004100
O     -1.138600   -0.678300   -0.001300
C     -1.137200   -2.047200    0.000200
N     -2.247500   -2.638900    0.009300
H      0.689000    1.892200    0.027900
H     -1.039300    1.666900    0.034500
H     -0.130100   -2.465100   -0.007100
H     -2.097400   -3.646600    0.008800
