13
gdb_21824
O     -0.287200    0.020900    0.001800
C     -0.095000    1.216300    0.009200
N      1.127400    1.826400    0.002200
C      2.368800    1.177800   -0.013000
C      3.606400    1.793700   -0.018300
N      4.516500    0.786500   -0.033800
N      3.960700   -0.433900   -0.038900
C      2.649100   -0.211400   -0.026000
H     -0.911700    1.964100    0.020300
H      1.132200    2.834400    0.008700
H      3.894800    2.832600   -0.012500
H      5.518500    0.868100   -0.041500
H      1.942800   -1.022900   -0.026300
