16
gdb_316
C     -0.017800    1.481000    0.011700
C      0.001800   -0.024900    0.000700
C      0.626000   -0.960300   -1.084100
C      0.026100   -1.912500   -0.012900
C      0.642100   -0.975700    1.062500
C     -1.225400   -0.992100    0.002800
H      0.999300    1.888500    0.005800
H     -0.541600    1.875100   -0.866300
H     -0.526400    1.862000    0.904300
H      0.144700   -0.958300   -2.067000
H      1.716600   -0.944600   -1.174500
H      0.040000   -3.002800   -0.020700
H      1.733800   -0.961100    1.136700
H      0.175800   -0.987800    2.052500
H     -1.835500   -1.005300    0.911200
H     -1.849400   -0.992700   -0.896400
