17
gdb_13398
C      0.597200    0.895000   -0.270700
O      0.871200    0.383000    1.015300
C     -0.138200   -0.459800    1.535100
C     -0.041200   -1.895500    0.998700
C      1.298500   -2.588100    1.359200
O      0.903300   -3.680800    2.230400
C     -0.446700   -3.634400    2.269300
N     -1.075800   -2.736000    1.633600
H     -0.355000    1.446600   -0.289700
H      1.408700    1.582600   -0.521400
H      0.555300    0.111900   -1.042100
H      0.003100   -0.476300    2.621700
H     -1.141300   -0.058400    1.331100
H     -0.207800   -1.886800   -0.083700
H      1.819400   -3.014900    0.498300
H      1.984900   -1.936600    1.905600
H     -0.902600   -4.411400    2.873600
