14
gdb_8851
C     -0.071600    1.341100    0.116700
O     -0.016300   -0.080000   -0.089200
C      0.689400   -0.480100   -1.166300
O      1.247800    0.247400   -1.935700
C      0.675100   -2.020600   -1.233000
O      1.138000   -2.500000   -2.445600
C      1.504000   -2.559900   -0.070000
O      2.463900   -3.259300   -0.273300
H      0.934100    1.750400    0.238400
H     -0.551900    1.829500   -0.734300
H     -0.658300    1.486800    1.023200
H     -0.367600   -2.327600   -1.050300
H      1.973400   -2.954300   -2.252300
H      1.180100   -2.266300    0.945200
