18
gdb_8432
C      0.501100    1.320600    0.014000
C     -0.113600   -0.080300   -0.019700
O     -1.538700    0.008400   -0.025500
C      0.418000   -0.912300   -1.232900
C      1.511500   -1.792000   -0.669700
O      2.479400   -1.083500    0.121300
C      1.425900   -1.792200    0.795900
C      0.276400   -0.913900    1.232900
H      1.590100    1.257000    0.065800
H      0.235600    1.880900   -0.892000
H      0.131900    1.875800    0.881900
H     -1.790200    0.666500   -0.682100
H     -0.395200   -1.541700   -1.610900
H      0.766100   -0.277200   -2.054600
H      1.905700   -2.628700   -1.241200
H      1.752000   -2.628600    1.408600
H      0.525000   -0.277900    2.087700
H     -0.575600   -1.540300    1.517700
