14
gdb_17016
O     -0.678100    0.815500    0.574900
C      0.101600    1.071100   -0.307800
C      1.294300    1.985000   -0.197900
C      1.092700    3.512700   -0.590200
C      0.364500    3.679900    0.785100
C      1.583700    2.749700    1.138400
C      2.378500    3.710300    0.237900
O      3.410000    4.301800    0.199400
H     -0.005800    0.609500   -1.316100
H      2.149500    1.508000   -0.690000
H      0.813400    3.912800   -1.562100
H      0.366000    4.680700    1.219100
H     -0.607400    3.200100    0.868000
H      1.837500    2.314300    2.101000
