14
gdb_10796
O     -0.007000   -0.083600    0.147200
C     -0.005100    1.127700    0.056500
C     -1.312800    1.915000    0.054200
N     -1.189300    3.269900   -0.452900
C     -0.066000    4.035400   -0.421600
O     -0.047900    5.213200   -0.718300
C      1.206700    3.320300    0.023900
N      1.128400    1.872000   -0.042700
H     -2.013900    1.349400   -0.564200
H     -1.705600    1.896000    1.081600
H     -2.030800    3.768700   -0.705000
H      2.007800    3.679300   -0.626600
H      1.438500    3.672000    1.040300
H      1.985900    1.340200    0.007000
