16
gdb_17244
C      0.155700    1.292000    0.173900
O     -0.182400   -0.035900   -0.202000
C      0.538200   -0.503300   -1.268300
C      0.391100   -0.167800   -2.757300
C      1.298400   -1.410600   -2.961100
O      2.591500   -1.000000   -2.426100
C      1.975800   -1.066200   -1.140400
C      0.849300   -1.960000   -1.554900
H      1.220100    1.375700    0.430800
H     -0.068500    2.007200   -0.629000
H     -0.449700    1.537300    1.048700
H     -0.630100   -0.351500   -3.101000
H      0.774600    0.780200   -3.146500
H      1.361700   -1.948100   -3.904100
H      2.581300   -1.025500   -0.244600
H      0.450200   -2.895300   -1.189000
