13
gdb_9814
C     -0.163100    1.471400   -0.867000
C     -0.091700    0.223900   -0.025300
C      0.910400   -0.839000   -0.283500
O      1.057900    0.047700    0.813700
C     -1.375000   -0.188600    0.636600
O     -2.450000    0.286800    0.371700
C     -1.255000   -1.239200    1.672300
N     -1.214700   -2.079200    2.465500
H      0.819500    1.692300   -1.288300
H     -0.883800    1.343300   -1.678500
H     -0.487900    2.323200   -0.263300
H      0.702400   -1.875300   -0.024500
H      1.595500   -0.684000   -1.115400
