13
gdb_20445
C      0.302900    1.562900    0.152800
N      1.238300    0.487900   -0.177500
C     -0.182900    0.154700    0.056900
C     -0.496600   -0.644700    1.248000
C     -1.382700   -1.659000    1.461800
N     -1.270200   -2.017300    2.782200
N     -0.408700   -1.315700    3.365000
O      0.129100   -0.393000    2.394400
H      0.445700    2.000000    1.135900
H     -0.015600    2.254300   -0.622800
H      1.427900    0.471900   -1.176400
H     -0.796900   -0.100400   -0.802200
H     -2.069500   -2.144800    0.790400
