19
gdb_8146
C      0.034400    1.489200    0.013500
C     -0.031500   -0.003500   -0.036200
C     -0.050000   -0.781200   -1.124900
C     -0.030500   -2.223500   -0.754600
N      1.206200   -2.605200    0.000700
C     -0.041200   -2.286600    0.733700
C     -0.734400   -3.360100    1.531000
C     -0.058000   -0.839600    1.234600
H      0.954700    1.829700    0.505300
H      0.006100    1.926900   -0.988100
H     -0.799600    1.905700    0.593400
H     -0.030800   -0.425000   -2.148600
H     -0.507600   -2.977200   -1.373400
H      1.297000   -3.621100   -0.030300
H     -0.753100   -4.308800    0.983800
H     -0.225900   -3.535300    2.486800
H     -1.770400   -3.082000    1.754300
H      0.805000   -0.627200    1.877600
H     -0.957600   -0.628800    1.830800
