19
gdb_13486
C     -0.010800    1.494800   -0.139700
C      0.041900   -0.025400    0.049400
C      0.825800   -0.427300    1.305700
C     -1.374100   -0.608800    0.096800
N     -2.195900   -0.431400   -1.138900
C     -2.557300   -1.872600   -1.207100
C     -1.537000   -2.129100   -0.087700
O     -1.040700   -3.099700    0.402100
H      0.997400    1.910400   -0.237200
H     -0.575300    1.754900   -1.039800
H     -0.489000    1.981500    0.719500
H      0.537400   -0.459900   -0.829000
H      0.374400    0.009700    2.204900
H      0.843100   -1.513200    1.432000
H      1.858500   -0.069300    1.247900
H     -1.879200   -0.276400    1.019000
H     -2.992700    0.181400   -1.015800
H     -3.580600   -2.126800   -0.897000
H     -2.355300   -2.351600   -2.171300
