18
gdb_18604
O      0.335400    1.251800   -0.538700
C      0.065800   -0.028500   -0.015600
C      0.068600   -0.215000    1.528500
C     -1.349900   -0.854600    1.454100
O     -2.395400   -0.120800    2.066700
C     -2.722500    0.969500    1.215200
C     -2.523300    0.459100   -0.224700
C     -1.400700   -0.576900   -0.081400
H     -0.106700    1.905200    0.013300
H      0.766200   -0.697500   -0.521800
H      0.860300   -0.852900    1.928300
H      0.076900    0.727400    2.085900
H     -1.421300   -1.886300    1.802200
H     -3.748000    1.273700    1.440000
H     -2.068800    1.835100    1.420700
H     -3.435400   -0.027100   -0.580800
H     -2.268800    1.259000   -0.925100
H     -1.535100   -1.432300   -0.744900
