20
gdb_11947
C      0.063900    1.533600    0.015000
C     -0.005300    0.033700    0.072100
C      1.156300   -0.858300   -0.275500
C      0.551400   -0.967800    1.101300
C      1.345200   -0.735000    2.345700
O      2.111800   -1.904900    2.621000
C     -0.733800   -1.800400    1.013400
C     -1.303400   -0.783200   -0.028700
H      1.053800    1.902200    0.303300
H     -0.135900    1.896800   -1.001000
H     -0.674400    1.997200    0.680000
H      1.044500   -1.671600   -0.990000
H      2.124400   -0.367000   -0.314500
H      1.998300    0.143200    2.210000
H      0.666400   -0.509600    3.185000
H      2.541000   -1.784000    3.473600
H     -0.610500   -2.835400    0.679900
H     -1.304500   -1.802800    1.946000
H     -2.174000   -0.243200    0.353600
H     -1.547800   -1.173200   -1.022800
