18
gdb_9882
C      0.136200    1.627500    0.283400
C     -0.016500    0.138800    0.063200
C      1.118700   -0.671300   -0.515300
C      0.712500   -0.831700    0.938600
O     -1.318100   -0.280200   -0.269100
C     -1.755700    0.082500   -1.557900
C     -3.041000   -0.674700   -1.844200
O     -3.717100   -0.495000   -2.821700
H      1.148400    1.863100    0.623000
H     -0.043000    2.196600   -0.635300
H     -0.570700    1.974800    1.044100
H      0.862000   -1.481500   -1.188700
H      2.052500   -0.169500   -0.744900
H      1.366400   -0.439800    1.709800
H      0.180900   -1.737500    1.205400
H     -1.953700    1.160500   -1.654700
H     -1.015800   -0.183000   -2.330700
H     -3.298700   -1.424400   -1.063800
