14
gdb_20726
C     -0.010200    1.503700   -0.040100
C      0.000700    0.009900    0.043800
N     -0.062800   -0.734300   -1.070400
N     -0.032800   -2.000100   -0.651000
C      0.048500   -2.112900    0.701400
C      0.092500   -3.415400    1.350800
O      0.060000   -4.465100    0.742500
C      0.072400   -0.812900    1.187000
H      0.898300    1.934800    0.393700
H     -0.074800    1.814900   -1.084600
H     -0.863000    1.927800    0.500500
H     -0.068800   -2.765900   -1.304900
H      0.158300   -3.382100    2.457700
H      0.133000   -0.511500    2.220900
