15
gdb_17163
O     -0.056700   -0.043500    0.080700
C      0.018300    1.159100    0.007000
C      1.303800    1.908200    0.004700
C      2.738500    1.410100    0.087600
N      2.976500    2.917800   -0.001000
C      1.772100    3.049400   -0.972400
C      1.172300    4.188800   -0.146500
C      1.707300    3.167100    0.858400
H     -0.898500    1.789800   -0.065600
H      3.075600    0.970000    1.030200
H      3.139200    0.854500   -0.764800
H      1.916800    2.954900   -2.050000
H      1.712100    5.138000   -0.188400
H      0.091100    4.334000   -0.194100
H      1.775300    3.211800    1.946700
