13
gdb_20418
C     -0.121800    1.278100   -0.343300
C      1.283200    1.044200    0.104400
N      0.302500   -0.037100    0.126100
C     -0.165000   -0.547400    1.312200
C     -1.433900   -0.752700    1.792700
N     -1.294600   -1.391500    2.993000
N     -0.093100   -1.586700    3.284900
O      0.709200   -1.033800    2.182100
H     -0.766500    1.857900    0.312000
H     -0.356700    1.335100   -1.401200
H      2.076500    0.926700   -0.626100
H      1.586500    1.463300    1.059400
H     -2.391300   -0.507000    1.369300
