14
gdb_2252
C      0.011500    1.554400    0.045300
C     -0.028200    0.059700   -0.041500
C     -0.859400   -0.820100    0.837200
N      0.588800   -0.918200    0.980200
C      1.015500   -1.828800   -0.141900
C      0.516200   -0.782400   -1.159600
O      0.717400   -0.578600   -2.322400
H      0.969500    1.943500   -0.311600
H     -0.780500    1.991400   -0.571800
H     -0.136500    1.885500    1.076800
H     -1.352600   -0.323600    1.668200
H     -1.411900   -1.659000    0.417700
H      2.103300   -1.930800   -0.178400
H      0.551500   -2.819000   -0.122900
