14
gdb_7948
O      0.175700    1.327900    0.293800
C      0.009200   -0.039300    0.029500
C     -1.459000   -0.443500   -0.161300
C     -1.440000   -1.449900   -1.309400
O     -2.317500   -2.179800   -1.689100
N     -0.174500   -1.357500   -1.896800
C      0.675100   -0.452200   -1.282500
N      1.790700    0.032000   -1.638900
H      1.039000    1.564100   -0.075200
H      0.460900   -0.653400    0.826700
H     -1.938500   -0.870400    0.719900
H     -2.039200    0.430400   -0.476200
H      0.042100   -1.865000   -2.742900
H      2.113100   -0.308700   -2.544300
