16
gdb_6449
N     -0.472100    1.051200    0.438300
C      0.009700   -0.250100   -0.043200
C      0.410100   -1.134900    1.178300
C     -1.062400   -1.646600    1.228100
O     -1.889900   -0.957000    2.127100
C     -1.207900   -1.201800   -0.259700
C      0.978400   -0.138300   -1.138400
N      1.740800   -0.025200   -2.001200
H      0.308800    1.615800    0.763400
H     -0.911600    1.565300   -0.321300
H      1.115400   -1.918400    0.893300
H      0.779300   -0.601900    2.057200
H     -1.196900   -2.710800    1.428900
H     -1.763800   -0.014700    1.941400
H     -2.147400   -0.723000   -0.544000
H     -0.970900   -2.004700   -0.961000
