19
gdb_7176
C      0.187300    1.803400   -0.223200
C      0.062800    0.292300   -0.010300
C      0.693800   -0.499400   -1.166400
C      0.449500   -2.002100   -1.098100
O      1.065900   -2.580600   -2.241100
N      0.640100   -0.071500    1.284900
C      0.033500   -0.899100    2.174100
O     -1.029200   -1.460000    1.999100
H      1.239200    2.109700   -0.278900
H     -0.291100    2.100200   -1.160700
H     -0.286300    2.352600    0.595300
H     -0.994900    0.022100    0.067800
H      0.286400   -0.127900   -2.113900
H      1.775800   -0.315900   -1.198100
H      0.870200   -2.413000   -0.169000
H     -0.632500   -2.202500   -1.078300
H      0.924400   -3.530900   -2.205900
H      1.532500    0.324700    1.538400
H      0.627700   -1.010600    3.103500
