16
gdb_9654
C     -0.411200    1.009200   -0.198500
O      0.568300    0.022800    0.091100
C      1.014500   -0.642100   -1.032300
C      1.498900   -2.041500   -0.834000
C      0.188200   -1.804200   -1.586500
O     -1.006700   -2.044200   -0.898200
C      0.152100   -2.018400   -3.007800
C      0.116100   -2.213200   -4.195000
H     -0.022100    1.765800   -0.896000
H     -1.313600    0.557400   -0.625800
H     -0.658800    1.494200    0.748200
H      1.511600   -0.019500   -1.778000
H      2.364900   -2.389500   -1.384100
H      1.374800   -2.434700    0.168900
H     -1.194200   -2.988000   -0.952700
H      0.079400   -2.374600   -5.243800
