18
gdb_12731
C     -0.368300    1.361400   -0.049100
C      0.101400   -0.065200    0.009300
O     -0.998800   -1.020900    0.085200
C     -0.443800   -1.630500    1.282400
C      0.838600   -0.797700    1.177900
C      1.862400   -1.374100    0.164000
C      1.151500   -0.607600   -1.006000
O      0.617600   -1.342800   -2.068100
H      0.484100    2.048400   -0.042000
H     -0.933200    1.530400   -0.972800
H     -1.018500    1.601200    0.797700
H     -1.071200   -1.408300    2.154400
H     -0.338000   -2.717400    1.183000
H      1.210200   -0.303800    2.074400
H      2.892600   -1.053200    0.335000
H      1.848700   -2.462700    0.060000
H      1.782600    0.180100   -1.430200
H     -0.199200   -1.730800   -1.718800
