17
gdb_11841
N     -0.968300   -0.588100   -1.121900
C     -0.502500    0.321600   -0.580500
C      0.095700    1.447300    0.114500
C      0.002600    1.479000    1.678100
C      1.473600    1.913100    1.700700
C      1.994900    3.183700    2.308400
C      2.454200    1.838000    2.827100
C      1.657000    1.488700    0.238300
H     -0.284900    2.376600   -0.316600
H     -0.738700    2.161500    2.099200
H     -0.153900    0.479400    2.092500
H      2.698800    3.776100    1.732200
H      1.323100    3.768100    2.929300
H      2.093000    1.514000    3.798000
H      3.467900    1.522100    2.601700
H      2.095700    0.492700    0.134600
H      2.171800    2.178700   -0.433900
