15
gdb_11483
O     -0.637200    0.211500    1.199200
C     -0.001400    1.025400    0.579600
C      1.411300    1.460500    0.903800
C      2.399400    0.978300   -0.147400
C      2.649800    1.775400   -1.405600
C      3.708500    1.704100   -0.336800
C     -0.601800    1.668300   -0.615100
N     -1.081700    2.188500   -1.529700
H      1.437800    2.556200    0.956100
H      1.652000    1.057000    1.891600
H      2.433800   -0.102700   -0.249100
H      2.806800    1.230500   -2.329100
H      2.115100    2.710100   -1.532000
H      3.886300    2.590400    0.263300
H      4.595200    1.108800   -0.522300
