17
gdb_18228
O     -0.721600    1.032900   -0.439300
C      0.211300    1.028600    0.323500
C      1.444200    1.900600    0.198000
C      1.536700    2.702300   -1.114300
C      2.188700    4.039700   -0.696100
N      1.924000    4.256800    0.740300
C      0.511600    4.116700    1.118800
C      1.454400    2.979600    1.294800
H      0.204200    0.372800    1.224000
H      2.322000    1.258900    0.350400
H      2.119200    2.178600   -1.875500
H      0.532900    2.839200   -1.522500
H      3.276500    3.997300   -0.816300
H      1.825600    4.892500   -1.277600
H      0.213800    4.710800    1.977500
H     -0.242100    4.040400    0.338500
H      1.814800    2.706700    2.282100
