16
gdb_2093
C     -0.029800    1.546300    0.006400
C      0.022700    0.018100   -0.000200
C      0.728800   -0.514100   -1.244500
O      0.818600   -1.946200   -1.234000
C      1.022700   -2.514100   -0.020000
N      1.033200   -1.984400    1.127200
C      0.744100   -0.555900    1.227000
H      0.978800    1.975300   -0.013800
H     -0.576500    1.934000   -0.859700
H     -0.528800    1.915500    0.907900
H     -1.001800   -0.377200   -0.008200
H      0.195300   -0.256200   -2.163300
H      1.745600   -0.101700   -1.311900
H      1.189400   -3.583100   -0.141400
H      1.688900   -0.018300    1.395200
H      0.142800   -0.396000    2.129500
