20
gdb_17169
C     -0.077200    1.538600    0.021100
C      0.080400    0.013800   -0.033100
C      0.800900   -0.465400   -1.267500
C      2.237600   -0.132200   -1.736700
C      1.696800   -1.082600   -2.818500
C      0.913800   -1.952300   -1.778400
C     -0.399300   -1.860300   -2.580600
C      0.255000   -0.475100   -2.749800
H      0.897200    2.037900    0.003900
H     -0.653200    1.906400   -0.834700
H     -0.595700    1.850400    0.932900
H      0.628000   -0.330400    0.854700
H     -0.908300   -0.461500    0.016100
H      2.434100    0.901500   -2.041700
H      3.056500   -0.508200   -1.112700
H      2.187800   -1.454700   -3.719100
H      1.320500   -2.791500   -1.209900
H     -0.468700   -2.482200   -3.479200
H     -1.335600   -1.905700   -2.014900
H     -0.099000    0.393200   -3.309400
