20
gdb_16530
C      0.494300    1.595300    0.036500
C      0.098000    0.123300    0.028000
C      0.881500   -0.821100   -0.956300
O      1.752400   -0.270900   -1.914200
C      1.448600   -1.618700    0.243600
C      2.694200   -1.005100    0.946200
C      1.776900   -0.356600    2.024100
C      0.528800   -0.794200    1.221600
H      1.567800    1.748100    0.192100
H      0.236300    2.062900   -0.918800
H     -0.027000    2.139800    0.831000
H     -0.980700    0.060400   -0.146700
H      0.186200   -1.437900   -1.532900
H      2.428700    0.238100   -1.456100
H      1.435300   -2.707100    0.169200
H      3.404500   -1.740400    1.329800
H      3.268200   -0.297600    0.336700
H      1.844900   -0.876800    2.983300
H      1.901600    0.712700    2.213600
H     -0.292800   -1.241300    1.782300
