14
gdb_11372
O      0.021000    1.425800    0.009700
C     -0.021400    0.024300    0.002000
C     -1.449100   -0.442000    0.012300
N     -2.491100    0.293800    0.022200
C     -3.634800   -0.620200    0.029500
C     -3.066800   -2.045500    0.020900
O     -3.621200   -3.115600    0.024000
N     -1.692900   -1.820200    0.011300
H      0.944300    1.694300   -0.002700
H      0.467300   -0.407700   -0.889600
H      0.483600   -0.417800    0.879500
H     -4.259600   -0.461500    0.915300
H     -4.274300   -0.457100   -0.845000
H     -1.008200   -2.559100    0.005100
