18
gdb_9651
C     -0.346600    1.095200   -0.177900
O      0.529800    0.015800    0.095900
C      0.963600   -0.634100   -1.049300
C      1.536700   -1.995300   -0.873400
C      0.183100   -1.849400   -1.579100
C     -1.057600   -2.307600   -0.828100
C      0.159700   -2.028200   -3.004300
C      0.132500   -2.167900   -4.199700
H      0.135400    1.847500   -0.819300
H     -1.268300    0.756900   -0.670000
H     -0.597700    1.553900    0.780900
H      1.401400    0.018800   -1.805100
H      2.398900   -2.279300   -1.464400
H      1.503600   -2.406000    0.129900
H     -0.999800   -1.999800    0.218400
H     -1.961400   -1.874500   -1.267200
H     -1.154600   -3.396800   -0.868300
H      0.109100   -2.296000   -5.253100
