14
gdb_13752
C      0.110900    1.362900   -0.789600
C      0.024100    0.093800    0.029700
O      0.975700   -0.411600    0.574300
C     -1.362300   -0.514800    0.126100
O     -1.451900   -1.888900    0.446200
C     -1.932200   -0.980300    1.427700
C     -1.157500   -0.906000    2.712000
O     -1.660200   -0.501600    3.730100
H      1.118100    1.774700   -0.728800
H     -0.138200    1.151600   -1.836400
H     -0.617800    2.100400   -0.433100
H     -2.084300   -0.166900   -0.614100
H     -3.014100   -0.924500    1.546900
H     -0.112900   -1.259000    2.644100
