19
gdb_4011
C      1.152400    0.513900   -1.069500
C      0.064300    0.023200   -0.095300
C      0.659500   -0.629600    1.129300
C      0.745000   -2.132400    1.204100
C     -0.609600   -2.790300    1.522600
O     -0.549300   -4.204500    1.465800
N      1.120500    0.006500    2.139300
O      0.990400    1.400200    1.989800
H      1.787300   -0.312200   -1.405600
H      0.698000    0.969600   -1.954200
H      1.787500    1.258600   -0.584500
H     -0.549100    0.873300    0.216300
H     -0.589800   -0.691500   -0.605200
H      1.103100   -2.535300    0.248600
H      1.468600   -2.406700    1.978800
H     -0.963600   -2.435700    2.502300
H     -1.360500   -2.497900    0.781000
H      0.046300   -4.501600    2.161100
H      1.362500    1.725100    2.816000
