13
gdb_19859
O      0.029100    1.370800   -0.220300
C      1.297500    0.776700    0.036700
C      0.052000   -0.028400    0.039700
C      0.455200   -0.739700   -1.281700
N     -0.264400   -0.326700   -2.478700
C      0.448900    0.589400   -2.994200
O      1.659800    0.918600   -2.455400
C      1.766700    0.114500   -1.274800
H      1.889500    1.184900    0.847500
H     -0.554800   -0.395800    0.858600
H      0.551400   -1.823200   -1.192600
H      0.200500    1.153000   -3.886300
H      2.737100   -0.381300   -1.244300
