20
gdb_11029
C     -0.163500    1.589900    0.028900
C      0.031200    0.066200    0.012800
C      0.817500   -0.450500   -1.180200
C      1.811300   -1.264700   -0.821600
C      1.915300   -1.411000    0.666100
C      2.282100   -2.746200    1.269200
C      2.273600   -0.112100    1.365700
C      0.821400   -0.498400    1.199200
H      0.797800    2.111900    0.056900
H     -0.702900    1.926500   -0.863000
H     -0.741600    1.899900    0.905500
H     -0.970400   -0.390600    0.005300
H      0.584800   -0.151300   -2.197000
H      2.498600   -1.759100   -1.500800
H      3.297800   -3.045900    0.984000
H      2.246200   -2.707700    2.362500
H      1.598200   -3.536200    0.938500
H      2.678100   -0.182600    2.371300
H      2.687100    0.694900    0.770100
H      0.276700   -0.768100    2.097700
