14
gdb_10665
C      0.214200    1.135600   -0.790500
C     -0.081900    0.089300    0.251000
O      0.616100   -0.110300    1.219700
C     -1.327100   -0.766700    0.070100
C     -1.103500   -2.251400    0.256400
N     -1.799300   -1.487900    1.269000
C     -2.340500   -0.308800   -0.848600
N     -3.120300    0.076700   -1.610200
H      1.170200    1.610600   -0.571100
H      0.230700    0.688900   -1.790400
H     -0.583100    1.886900   -0.800700
H     -1.717000   -2.934000   -0.323100
H     -0.075300   -2.553800    0.434000
H     -1.139500   -1.245100    2.011200
