18
gdb_13945
O      0.066600    1.243300   -0.411000
C      0.077500   -0.078700    0.067200
C     -0.010200   -0.315100    1.591000
O     -1.185400   -1.132200    1.419000
C     -1.297700   -0.782400    0.027200
C     -2.530600    0.009300   -0.465800
C     -2.507000   -0.856300   -1.756200
C     -1.608800   -1.880700   -1.006500
H      0.969700    1.573900   -0.424600
H      0.863900   -0.674700   -0.414500
H      0.808600   -0.864400    2.069600
H     -0.219500    0.605000    2.152100
H     -3.391000   -0.221400    0.168700
H     -2.423200    1.090200   -0.563700
H     -3.464600   -1.217900   -2.135100
H     -1.973300   -0.359100   -2.569800
H     -0.765200   -2.331000   -1.537700
H     -2.198500   -2.675000   -0.539600
