16
gdb_13566
C      0.393600    1.558300   -0.430300
C      0.099500    0.130900   -0.053900
O      1.213900   -0.753800    0.144300
C      0.363500   -0.477800    1.259900
C      0.998200    0.254700    2.434200
O      0.015400    0.651700    3.347800
C      2.012000   -0.656700    3.106000
O      1.923200   -0.933600    4.278100
H      1.202800    1.985200    0.165500
H      0.688000    1.613100   -1.483300
H     -0.501100    2.175200   -0.297400
H     -0.707800   -0.327400   -0.628300
H     -0.270600   -1.308900    1.574200
H      1.565900    1.119700    2.053300
H      0.269400    0.245500    4.193000
H      2.822800   -1.047400    2.463100
