19
gdb_2086
C     -0.015900    1.536700    0.049000
C     -0.013000    0.033800   -0.026200
C     -0.041800   -0.622900   -1.189100
C     -0.005000   -2.123500   -1.325600
C      0.410500   -2.815500   -0.019900
C     -0.312500   -2.186800    1.175800
C      0.032200   -0.696300    1.299100
H      0.863600    1.907300    0.592500
H     -0.016700    1.993400   -0.944500
H     -0.893300    1.906300    0.596100
H     -0.092100   -0.052200   -2.115100
H     -0.993600   -2.488000   -1.645300
H      0.680400   -2.402800   -2.136400
H      0.205900   -3.890000   -0.077200
H      1.494300   -2.706700    0.118300
H     -1.396300   -2.296900    1.038600
H     -0.058600   -2.710600    2.103900
H      1.033900   -0.575900    1.740500
H     -0.652200   -0.208400    2.006400
