18
gdb_16624
C      0.119700    1.631100    0.008700
C      0.103200    0.102500   -0.017100
C      0.766400   -0.584100   -1.199600
C      2.274300   -0.562100   -1.263400
C      1.572500   -1.773900   -0.702700
C      1.451800   -1.847100    0.806800
C      0.788900   -0.523300    1.213800
O      0.804100   -0.040200    2.316300
H      1.135700    2.013600   -0.129700
H     -0.508300    2.045800   -0.785000
H     -0.247400    1.991600    0.973200
H     -0.943800   -0.237200    0.035400
H      0.218000   -0.646400   -2.132700
H      2.734600   -0.654000   -2.240700
H      2.821400    0.082600   -0.580000
H      1.598800   -2.696500   -1.270300
H      0.790800   -2.667800    1.115900
H      2.396400   -1.976300    1.343500
