16
gdb_20812
C     -0.210900    1.516900    0.008600
C      0.019700   -0.005500    0.002400
C      0.849200   -0.484600    1.153000
C      2.208100   -0.715700    1.270600
C      2.381400   -1.107900    2.615600
O      3.556700   -1.440100    3.190700
N      1.245200   -1.128100    3.295400
N      0.321100   -0.738600    2.375900
H      0.741100    2.053600   -0.036700
H     -0.818000    1.820500   -0.849700
H     -0.727700    1.834200    0.919600
H     -0.948100   -0.522800    0.008000
H      0.517000   -0.296900   -0.928000
H      2.960600   -0.621000    0.505900
H      3.364400   -1.667100    4.109100
H     -0.644300   -0.688900    2.650700
