14
gdb_12957
O      0.048500    1.383900    0.340300
C     -0.047500    0.007900    0.135900
C     -0.517500   -0.868100    1.251900
N     -1.623800   -0.243100    1.991100
C     -2.409900   -0.117500    0.801800
N     -3.588000    0.251700    0.546400
C     -1.352200   -0.730800   -0.063200
O     -1.539200   -1.523800   -1.163100
H     -0.260000    1.831200   -0.455200
H      0.750200   -0.433300   -0.466000
H      0.028100   -1.704300    1.669200
H     -1.406200    0.623800    2.475000
H     -4.059600    0.596200    1.385300
H     -2.340900   -2.042000   -1.023800
