16
gdb_19572
C      0.048600    1.485700    0.013700
O      1.222900    0.643300   -0.013000
C     -0.040400    0.034100   -0.000800
C     -0.589300   -0.971700    1.029500
C     -1.769600   -1.143300    0.014900
C     -0.615100   -0.967200   -1.008300
O      0.192600   -2.134900   -0.794200
C      0.274800   -2.186100    0.653700
H     -0.107500    2.032500    0.942600
H     -0.128900    2.057000   -0.896400
H     -0.727800   -0.738600    2.083400
H     -2.282600   -2.106100   -0.003600
H     -2.475000   -0.311500    0.034300
H     -0.742800   -0.785000   -2.072900
H      1.317700   -2.081100    0.972100
H     -0.125300   -3.139400    1.016300
