21
gdb_15264
C      0.781800   -0.091200   -0.443100
C      0.135400   -0.825100    0.738800
C     -1.330600   -1.123500    0.479900
C     -1.834600   -2.380100   -0.165800
C     -0.927500   -3.504500   -0.598300
O     -1.665800   -4.715700   -0.472600
N     -2.127700   -2.086900    1.237500
C     -1.538600   -2.890500    2.299000
H      1.820800    0.173200   -0.224300
H      0.774000   -0.710400   -1.346100
H      0.243800    0.834600   -0.674000
H      0.701000   -1.734500    0.956900
H      0.207700   -0.199300    1.638100
H     -1.892000   -0.214800    0.252400
H     -2.714200   -2.306700   -0.805800
H     -0.627900   -3.330200   -1.644600
H     -0.008000   -3.542500    0.000200
H     -1.117200   -5.435200   -0.799300
H     -0.478300   -3.153000    2.175300
H     -1.637300   -2.346300    3.244100
H     -2.104200   -3.823000    2.377400
