15
gdb_4154
O     -0.211900    1.401100   -0.045700
N     -0.015000    0.042500    0.250600
C     -1.068200   -0.626300    0.036400
C     -2.482900   -0.360700   -0.433100
C     -2.794400   -1.874100   -0.194200
C     -1.313500   -2.121600    0.216300
C     -0.485200   -2.964800   -0.735000
O     -0.928500   -3.562400   -1.680600
H      0.646300    1.783400    0.168100
H     -3.034000    0.350400    0.188500
H     -2.551600   -0.026600   -1.472600
H     -3.512800   -2.062600    0.604000
H     -3.081900   -2.434500   -1.083900
H     -1.134900   -2.479200    1.237100
H      0.601500   -2.969700   -0.502000
