16
gdb_13470
C     -0.048200    1.494900   -0.236400
C      0.032200   -0.002300   -0.058900
O      1.062400   -0.644000   -0.049600
N     -1.178800   -0.657100    0.102200
C     -1.410100   -2.095500    0.293000
C     -2.932900   -1.775800    0.355500
C     -2.535100   -0.308200    0.149900
N     -3.068400    0.832200    0.046200
H      0.963600    1.883500   -0.351000
H     -0.657700    1.746700   -1.108700
H     -0.542900    1.958100    0.621800
H     -1.084100   -2.701200   -0.555500
H     -0.966300   -2.485700    1.211600
H     -3.533800   -2.196700   -0.452800
H     -3.416200   -1.981400    1.312300
H     -4.082100    0.764000    0.122000
