16
gdb_16077
C      0.045200    1.362400   -0.223900
O     -0.013300    0.025700    0.260800
C     -1.247800   -0.554600    0.121500
C     -2.367100   -0.525900    1.163500
O     -2.734600   -1.900900    0.835300
C     -1.611800   -2.019100   -0.053900
C     -1.819500   -1.065400   -1.193100
O     -3.092400   -0.760300   -1.665600
H      1.078800    1.694400   -0.108500
H     -0.240300    1.415400   -1.282400
H     -0.611100    2.030000    0.350800
H     -1.994200   -0.466700    2.190700
H     -3.197300    0.171600    1.010600
H     -1.054900   -2.948800   -0.052400
H     -1.075300   -1.129700   -1.983200
H     -3.708400   -1.223700   -1.081500
