19
gdb_1146
C     -0.050700    1.516300   -0.053700
C     -0.000500    0.001000    0.031700
C     -1.247300   -0.668100   -0.520200
C      1.336300   -0.692500   -0.202400
C      0.718500   -0.671000    1.180400
C      1.367200    0.101500    2.308800
O      0.109500   -1.861300    1.626100
H      0.878900    1.990900    0.269700
H     -0.232100    1.828000   -1.088900
H     -0.865100    1.921700    0.558300
H     -1.370200   -0.425700   -1.582300
H     -1.203800   -1.751800   -0.410600
H     -2.143000   -0.316500    0.005300
H      1.322600   -1.639000   -0.733200
H      2.212700   -0.079000   -0.389500
H      1.847400    1.019900    1.965000
H      0.628300    0.359600    3.074500
H      2.142300   -0.511600    2.786300
H      0.811200   -2.460300    1.904000
