16
gdb_2304
C      0.111000    1.527700    0.037800
C      0.063100    0.072800    0.038700
C      0.028300   -1.132200    0.050000
C      0.006600   -2.569300    0.009200
C     -0.447600   -3.356200    1.205100
N     -1.255900   -3.336600   -0.000100
C     -2.508400   -2.594600    0.057000
H      1.146000    1.887300    0.031700
H     -0.389200    1.945300   -0.843200
H     -0.377800    1.943500    0.925900
H      0.770500   -3.014200   -0.625300
H      0.034600   -4.300200    1.446300
H     -0.786900   -2.776600    2.062200
H     -2.462300   -1.690200    0.681400
H     -2.796200   -2.296700   -0.955800
H     -3.283600   -3.257300    0.454200
