17
gdb_17616
C      0.073600    1.526100   -0.245100
C      0.008800    0.034400    0.101800
O      0.436900   -0.159800    1.425200
C     -1.386000   -0.586800   -0.060000
O     -1.906300   -1.167300    0.874500
N     -1.932700   -0.584600   -1.332700
C     -2.543500    0.545800   -2.019600
C     -3.358800   -0.625100   -1.564300
H      1.074600    1.893000   -0.004500
H     -0.111800    1.706100   -1.307200
H     -0.645200    2.096300    0.351600
H      0.665600   -0.512800   -0.595600
H     -0.253200   -0.703600    1.838300
H     -2.653800    1.475500   -1.469100
H     -2.281500    0.658800   -3.067800
H     -3.695600   -1.359600   -2.289400
H     -3.999200   -0.496600   -0.696500
