16
gdb_3530
C      0.026500    1.530600   -0.174800
N      0.027400    0.077900   -0.039100
C     -1.101200   -0.506700    0.748700
C     -0.238600   -1.733500    1.173600
C     -0.622100   -1.590400    2.658600
C     -0.533000   -0.130800    2.170800
C      0.664600   -0.463400    1.200600
H      1.016200    1.861100   -0.507700
H     -0.696000    1.819200   -0.945700
H     -0.223500    2.077400    0.750100
H     -2.138900   -0.496900    0.408900
H     -0.062500   -2.623600    0.570500
H     -1.614200   -1.951500    2.946200
H      0.125500   -1.908900    3.391400
H     -0.701200    0.782900    2.740300
H      1.736400   -0.402000    1.400600
