13
gdb_4271
N      0.091500    1.365200    0.185100
C     -0.062400    0.005500    0.066000
C     -1.206300   -0.704200    0.031000
C     -1.164600   -2.153700   -0.007700
N     -2.223300   -2.870200   -0.032500
N      0.138200   -2.737500   -0.024900
C      1.146400   -1.977700   -0.003300
O      1.160700   -0.611700    0.043200
H      0.946600    1.730400   -0.208900
H     -0.725800    1.909700   -0.044300
H     -2.166600   -0.206200    0.039300
H     -1.951200   -3.854500   -0.062100
H      2.165200   -2.353600   -0.019200
