13
gdb_8834
O      0.143100    1.348400    0.122700
C      0.028700   -0.039800    0.042600
C     -1.412600   -0.491400    0.044700
O     -2.325100    0.302000    0.086800
C     -1.757300   -2.001500    0.012600
O     -3.132700   -2.193300    0.113800
C     -1.200300   -2.598800   -1.220200
N     -0.748300   -3.053900   -2.181000
H     -0.757400    1.702500    0.131400
H      0.506600   -0.432400   -0.869500
H      0.537900   -0.530200    0.889500
H     -1.248000   -2.477600    0.864800
H     -3.530300   -1.312400    0.011700
