18
gdb_13697
C     -0.305900    1.476000    0.203600
C      0.003300    0.001300    0.099800
C      1.369300   -0.479600   -0.287000
C      0.877300   -0.700300    1.140100
C      1.463400    0.027900    2.225500
C      1.961900    0.639000    3.139400
C      2.511600    1.371900    4.277200
O      1.598400    2.295100    4.859600
H      0.541500    2.028700    0.617800
H     -0.537600    1.893500   -0.782200
H     -1.167500    1.654800    0.855600
H     -0.823800   -0.609800   -0.252100
H      1.465000   -1.354000   -0.921100
H      2.146600    0.264600   -0.420200
H      0.585400   -1.718600    1.381600
H      2.881600    0.652500    5.025900
H      3.375500    1.969700    3.964600
H      0.771400    1.823300    5.002800
