12
gdb_1835
O     -0.026000    0.019600    0.004500
C     -0.013500    1.219700    0.011100
C     -1.274100    2.103300    0.032300
N     -0.734700    3.444400    0.031400
C      0.633200    3.557000    0.014000
O      1.253000    4.595100    0.010500
C      1.200500    2.137300   -0.001100
H     -1.893500    1.883000   -0.846900
H     -1.869600    1.874600    0.925800
H     -1.303200    4.276500    0.043500
H      1.840800    1.960600    0.868500
H      1.816500    1.969500   -0.889900
