18
gdb_7753
C     -0.082200    1.561400   -0.015900
C      0.009500    0.030100    0.053500
C      0.630600   -0.550700   -1.236200
C      0.937400   -2.031100   -1.102600
O      0.542600   -2.859800   -1.888500
C      1.797000   -2.401500    0.101900
C      1.586900   -1.490900    1.283700
C      0.783100   -0.428900    1.266800
H      0.915100    2.009400   -0.088800
H     -0.661800    1.880600   -0.887800
H     -0.567700    1.966300    0.878000
H     -1.018300   -0.356200    0.137300
H     -0.015900   -0.398900   -2.103900
H      1.581500   -0.029900   -1.420800
H      1.595200   -3.448300    0.355500
H      2.850600   -2.374000   -0.218300
H      2.112900   -1.756700    2.197500
H      0.657700    0.161200    2.172200
