16
gdb_6114
C      0.213900    1.407300   -0.117400
C     -0.074800   -0.069400    0.063300
C     -1.527100   -0.448500   -0.149400
O      0.794700   -0.871900   -0.855800
C      1.509100   -1.388500    0.179600
O      2.492100   -2.061800    0.146700
C      0.639800   -0.748100    1.266200
O      1.290100    0.101500    2.172500
H      1.271000    1.622300    0.045900
H     -0.063800    1.722000   -1.127500
H     -0.365500    1.993200    0.602100
H     -1.857200   -0.158000   -1.151000
H     -1.671500   -1.527200   -0.040700
H     -2.160800    0.062300    0.582400
H     -0.001500   -1.480700    1.776400
H      2.111900   -0.327200    2.438200
