16
gdb_20399
C      0.112800    1.414700   -0.345500
C      1.412800    2.033200    0.270300
C      2.165400    0.806100    0.692700
C      3.389000    0.339800    1.112400
N      3.211100   -0.995100    1.338400
N      1.951300   -1.431300    1.091600
C      1.329900   -0.327500    0.703400
C     -0.075200    0.001900    0.292300
H     -0.760000    2.057400   -0.205100
H      0.257900    1.297600   -1.424300
H      1.941100    2.664000   -0.451400
H      1.173300    2.672000    1.130700
H      4.348700    0.808000    1.265900
H      3.905900   -1.662600    1.626800
H     -0.739200    0.044300    1.165200
H     -0.513100   -0.716000   -0.406700
