11
gdb_21687
N      0.061800    1.349700    0.144700
C      0.036000   -0.013400    0.039500
N     -1.084300   -0.701500    0.018600
O     -0.690200   -2.054000   -0.015700
C      0.630800   -2.129600   -0.026900
C      1.185600   -0.883300    0.005100
C      2.543200   -0.499800    0.001100
N      3.642700   -0.135000   -0.009400
H      0.881300    1.808700   -0.221900
H     -0.807200    1.815700   -0.069300
H      1.065300   -3.117100   -0.057800
