13
gdb_1046
C     -0.069200    1.442100    0.135900
N      0.321500    0.056400   -0.119100
C      0.705300   -0.731200    0.944900
C      0.562400   -2.046000    1.272300
N      1.279000   -2.297000    2.440700
C      1.789500   -1.160800    2.760600
O      1.489600   -0.144800    1.893300
H      0.761000    1.969500    0.609000
H     -0.279400    1.925400   -0.820600
H     -0.953100    1.536200    0.784000
H     -0.319200   -0.434800   -0.726100
H      0.009600   -2.816700    0.761000
H      2.399600   -0.899100    3.609400
