18
gdb_12910
C     -0.018100    1.546300    0.033500
C     -0.031800    0.044800    0.060400
C     -1.309500   -0.815900    0.029200
C     -0.637600   -1.819500    1.022300
C      0.620400   -0.942600    1.013200
C      1.182800   -0.762000   -0.393500
C      1.174000   -1.799500   -1.448700
O      2.067300   -1.945700   -2.250900
H      0.973000    1.940600    0.278600
H     -0.291700    1.928400   -0.957000
H     -0.732700    1.956400    0.756700
H     -2.154000   -0.295200    0.487400
H     -1.632300   -1.196800   -0.943500
H     -1.130500   -1.818400    1.996700
H     -0.525200   -2.857500    0.698400
H      1.267000   -0.752700    1.862600
H      2.094800   -0.171400   -0.416300
H      0.282000   -2.460800   -1.477600
