17
gdb_3615
C     -0.004300    1.542100    0.053200
C      1.523000    1.528700   -0.017600
C      2.099600    0.505300    0.949600
C      1.243200    0.033700    2.126100
C     -0.003700   -0.599700    1.446500
C      0.022000   -0.022900    0.024400
C      1.528100    0.048500   -0.363000
H     -0.482400    2.019400    0.917400
H     -0.440100    1.953400   -0.861200
H      2.146100    2.319100   -0.421200
H      3.178500    0.538000    1.058300
H      1.783400   -0.694300    2.739100
H      0.969200    0.863100    2.787200
H      0.093700   -1.691000    1.410300
H     -0.935700   -0.369000    1.973400
H     -0.669000   -0.497100   -0.672800
H      2.051600   -0.499200   -1.135300
