11
gdb_3933
O      0.081900    1.327900    0.158800
C      0.054200   -0.010500    0.000500
C      0.032700   -0.800800   -1.131200
O     -0.016300   -0.289200   -2.408300
C     -0.008600   -2.124100   -0.640000
N     -0.001200   -2.156200    0.689600
N      0.027500   -0.848400    1.058400
H      0.074700    1.713500   -0.726400
H      0.717100   -0.647700   -2.918800
H     -0.035900   -3.046400   -1.202200
H      0.024900   -0.600100    2.032500
