13
gdb_3947
O      0.598200    0.066400    0.928700
C     -0.129100    0.321100   -0.267800
C     -1.507900   -0.228500   -0.088500
C     -2.715000    0.032200   -0.708100
C     -3.621700   -0.868600   -0.109200
N     -3.036000   -1.626400    0.814400
N     -1.751200   -1.224400    0.796500
H      1.529100    0.234000    0.757600
H     -0.187400    1.397100   -0.488900
H      0.360900   -0.160300   -1.129300
H     -2.908700    0.763400   -1.476500
H     -4.676100   -0.989700   -0.310100
H     -1.086600   -1.602200    1.450600
