17
gdb_12454
O      0.280600    1.238200   -1.703500
C      0.109300    1.522300   -0.543800
C     -1.223900    2.122700   -0.076600
N     -1.250800    2.440500    1.341200
C     -0.593100    3.693600    1.692000
C      0.900800    3.661300    1.523200
C      1.653500    2.666300    1.053100
C      1.175200    1.325600    0.529800
H     -1.445400    2.979700   -0.738300
H     -1.986200    1.364100   -0.287000
H     -2.206600    2.457200    1.673200
H     -0.986300    4.556600    1.114100
H     -0.824200    3.912200    2.743300
H      1.398200    4.580900    1.825900
H      2.725700    2.830100    0.989100
H      0.747700    0.728500    1.342500
H      2.000900    0.772700    0.078800
