15
gdb_16736
O     -0.041100   -0.011300    0.067000
C      0.016800    1.199200    0.024700
C      1.266700    1.953200   -0.026800
C      1.378600    3.292100   -0.006900
C      2.804600    3.688200    0.003500
C      3.582700    3.196100    1.184000
N      3.610300    2.437700   -0.061900
C      2.641100    1.316100   -0.111200
H     -0.905800    1.821300    0.013300
H      0.555100    3.996800    0.011400
H      3.144800    4.550700   -0.561900
H      4.522500    3.677200    1.441100
H      3.014400    2.807100    2.026700
H      2.828800    0.605400    0.700600
H      2.767900    0.767100   -1.051200
