18
gdb_9892
O     -0.431900    1.310800   -0.272500
C     -0.098800   -0.035700   -0.039300
C      1.031900   -0.555900   -0.908100
C      2.350400    0.210900   -0.693100
C      3.430600   -0.250400   -1.642100
O      4.512000   -0.663800   -1.312100
C     -0.286200   -0.565500    1.360500
C     -1.269400   -0.921100    0.259600
H      0.175600    1.861500    0.232600
H      1.186300   -1.620700   -0.700100
H      0.730800   -0.473700   -1.960400
H      2.168300    1.275800   -0.898700
H      2.716700    0.109600    0.332700
H      3.147000   -0.187600   -2.719700
H      0.387500   -1.334700    1.723200
H     -0.623600    0.136800    2.114900
H     -2.240400   -0.441300    0.287400
H     -1.267100   -1.933500   -0.129300
