15
gdb_5191
O      0.106600   -0.181800   -0.191100
C      0.069700    1.021100   -0.165800
C      1.285500    1.926500   -0.046700
C      1.306700    2.938000   -1.159700
C      1.713500    2.708200   -2.458700
N      1.534600    3.866200   -3.168500
C      1.014000    4.838000   -2.353800
C      0.858800    4.291100   -1.102200
H     -0.894300    1.573200   -0.252200
H      1.221700    2.443900    0.919800
H      2.178800    1.295700   -0.032100
H      2.116600    1.822700   -2.923900
H      1.761500    3.986800   -4.139900
H      0.808400    5.827500   -2.728600
H      0.475400    4.800500   -0.230700
