15
gdb_20381
C      0.090700    1.449300   -0.292500
C      1.454300    2.011500    0.251900
C      2.139300    0.738800    0.626200
C      1.320900   -0.356600    0.629900
C     -0.087200   -0.012700    0.247800
N      2.020200   -1.450100    1.025000
N      3.250500   -1.081700    1.265900
N      3.331300    0.260200    1.032000
H     -0.747900    2.095800   -0.023900
H      0.138200    1.420900   -1.384700
H      1.980300    2.605300   -0.502300
H      1.307300    2.661000    1.124200
H     -0.758200   -0.043600    1.114800
H     -0.516300   -0.674400   -0.509800
H      4.218600    0.718600    1.160300
