9
gdb_500
O      0.038500    0.058500   -0.008600
C      0.180300    1.224700   -0.188100
O      0.738300    2.036100    0.751000
C      0.879100    3.411900    0.414900
C      2.183900    3.695000   -0.196500
N      3.204000    3.925300   -0.685800
H     -0.125100    1.771300   -1.100800
H      0.084300    3.741100   -0.266100
H      0.781900    3.974900    1.346100
