16
gdb_5316
C     -0.054200    1.402100    0.035400
N     -0.207800   -0.041900   -0.018800
C      0.110300   -0.784400    1.188200
C     -0.057200   -0.634200   -1.238000
N      0.006900   -0.054500   -2.404300
C      0.078700   -1.120100   -3.297500
C      0.068500   -2.287600   -2.625400
O     -0.016000   -1.988600   -1.275000
H      0.999600    1.706400    0.125600
H     -0.460200    1.839000   -0.876500
H     -0.602600    1.786300    0.900600
H     -0.425500   -0.336200    2.029800
H     -0.209300   -1.820900    1.084200
H      1.186900   -0.771600    1.420000
H      0.138100   -0.957600   -4.362300
H      0.117800   -3.331200   -2.878800
