17
gdb_11596
C     -0.135400    1.212500    0.256400
C     -0.241900   -0.291300    0.206500
O      0.341600   -1.054900    0.938200
O     -1.080800   -0.675900   -0.777300
C     -1.260300   -2.100300   -0.958200
C     -2.360400   -2.645700   -0.089000
C     -2.251200   -4.041700    0.411000
N     -2.120400   -2.911200    1.336200
H      0.577000    1.501200    1.027800
H      0.180600    1.601200   -0.715400
H     -1.116400    1.643700    0.476100
H     -1.509400   -2.209900   -2.017100
H     -0.313400   -2.605600   -0.750700
H     -3.348400   -2.242200   -0.301900
H     -3.148100   -4.642100    0.533700
H     -1.362300   -4.609300    0.144400
H     -1.140900   -2.731400    1.546700
