16
gdb_15122
N      0.111800   -1.103000    0.417000
C      0.072500    0.035600    0.228100
C      0.014600    1.484400    0.014300
N      1.350900    2.060100   -0.055800
C      1.332800    3.507900   -0.241300
C      2.746300    4.028400   -0.255100
C      3.100600    5.321400    0.338700
O      3.383800    4.101600    1.026200
H     -0.500500    1.670400   -0.936800
H     -0.625500    1.919000    0.804600
H      1.863300    1.842500    0.793800
H      0.852700    3.728600   -1.204300
H      0.759900    4.039500    0.540000
H      3.380400    3.622000   -1.042900
H      3.969300    5.862800   -0.031800
H      2.323900    5.940300    0.786200
