13
gdb_20392
C      0.037100    1.380600   -0.131000
C      1.523900    1.842700    0.106100
C      2.110300    0.561500    0.620300
C      1.133000   -0.384300    0.649600
N      1.706100   -1.500100    1.113300
N      3.045700   -1.236900    1.370600
N      3.265400    0.012000    1.065600
O     -0.096900   -0.046500    0.246800
H     -0.676900    1.931100    0.484500
H     -0.262800    1.452100   -1.178200
H      1.980100    2.192900   -0.825300
H      1.569700    2.667300    0.824600
H      1.336200   -2.419400    1.285700
