17
gdb_1777
C     -0.156500    1.368200   -0.136900
C      0.133900   -0.104800    0.037600
C      1.506500   -0.667800   -0.105800
C      0.856100   -0.655800    1.277400
C      1.386600    0.250800    2.369700
C      0.346600   -1.976500    1.738400
O     -0.075600   -2.847800    1.014000
H      0.684000    1.997000    0.169200
H     -0.358700    1.586700   -1.191200
H     -1.035800    1.676800    0.438700
H     -0.658500   -0.767400   -0.299900
H      1.618500   -1.638400   -0.575800
H      2.332200    0.022100   -0.250100
H      1.782000    1.185100    1.966400
H      0.605800    0.507600    3.094800
H      2.201100   -0.235800    2.918200
H      0.374900   -2.122800    2.842900
