20
gdb_17963
C      0.024600    1.519200    0.114000
C      1.430900    2.132600    0.054000
C      2.223200    1.752600   -1.214500
C      1.472800    2.063300   -2.477700
C      0.588700    1.242100   -3.058300
C      0.232900   -0.115400   -2.632200
C      0.035200   -0.632500   -1.410300
C     -0.030100   -0.010400   -0.035300
H     -0.416700    1.780300    1.083100
H     -0.615700    1.978100   -0.645800
H      1.342700    3.224300    0.118400
H      2.006200    1.817500    0.934100
H      3.184900    2.278000   -1.207200
H      2.443200    0.678900   -1.184500
H      1.649900    3.035700   -2.932700
H      0.130800    1.562700   -3.993300
H      0.108400   -0.811200   -3.462600
H     -0.176900   -1.701700   -1.383700
H      0.747900   -0.473100    0.592700
H     -0.973500   -0.362100    0.407000
