17
gdb_8097
C      0.038600    1.599100    0.038000
C      0.073900    0.088200    0.053300
C      1.316700   -0.760800   -0.279200
C      2.500300   -0.154300    0.391000
N      3.672300    0.130000    0.048800
O      1.880100   -0.049200    1.637200
C      0.705400   -0.747400    1.114100
C      0.102900   -1.793100    1.989400
H      0.916600    2.020400    0.531100
H      0.005500    1.977100   -0.988500
H     -0.850500    1.966400    0.561600
H     -0.816800   -0.387800   -0.355800
H      1.332700   -1.512500   -1.055100
H      4.204200    0.500900    0.838200
H     -0.329200   -1.341100    2.888900
H     -0.696300   -2.316700    1.457100
H      0.855300   -2.523600    2.300900
