20
gdb_11794
O     -0.063100    1.407700   -0.161700
C      0.000900   -0.002200    0.022800
C     -1.404800   -0.542300    0.011800
C     -2.298300   -0.516500   -1.266700
C     -3.078300   -1.623700   -0.502900
C     -1.693300   -2.073600    0.047400
C     -3.657500   -0.838900    0.691100
C     -2.386200   -0.016800    1.084100
H      0.833700    1.753700   -0.145700
H      0.590600   -0.478900   -0.777300
H      0.484900   -0.255600    0.981600
H     -2.819500    0.413400   -1.510700
H     -1.773800   -0.897700   -2.146900
H     -3.742400   -2.319500   -1.016600
H     -1.106900   -2.628600   -0.690000
H     -1.659700   -2.582500    1.016600
H     -4.497900   -0.201800    0.399800
H     -4.000100   -1.497600    1.494800
H     -2.037000   -0.237200    2.098200
H     -2.528600    1.062800    1.004700
