15
gdb_4044
O     -0.157600    1.336500    0.216500
N      0.000800   -0.059400    0.242800
C     -1.099400   -0.651500    0.005900
C     -1.188300   -2.164700   -0.021900
C     -2.645100   -2.457000    0.381800
C     -3.438300   -1.209200   -0.028400
O     -4.628700   -1.152200   -0.184400
C     -2.458700   -0.041300   -0.208200
H      0.724500    1.646900    0.447400
H     -1.005600   -2.521500   -1.044000
H     -0.439100   -2.627700    0.622100
H     -3.077000   -3.356900   -0.059700
H     -2.737000   -2.551800    1.471800
H     -2.667000    0.768200    0.499000
H     -2.574300    0.394100   -1.208200
