18
gdb_8323
O     -0.111900    0.350000   -1.046500
C     -0.078300    1.276200   -0.289900
C     -1.156000    2.133700    0.392800
C     -0.021600    3.109500    0.844700
C     -0.104400    4.568800    0.319600
C     -0.599000    5.007700    1.724300
C     -0.049700    3.669500    2.288900
C      1.053500    2.115600    0.322100
H     -1.933900    2.529100   -0.267400
H     -1.641200    1.599800    1.218100
H      0.889200    4.970000    0.096000
H     -0.756600    4.758900   -0.537500
H     -0.192200    5.934000    2.135100
H     -1.690200    5.054600    1.776400
H     -0.658700    3.132600    3.021900
H      0.960800    3.784500    2.694100
H      1.582900    1.576300    1.116400
H      1.794700    2.502000   -0.384400
