16
gdb_5589
C      0.012700    1.374300    0.083300
O      0.029500   -0.035900    0.026800
C      0.623000   -0.575900   -1.077200
C      0.711200   -1.942900   -1.263800
N      0.287400   -3.053400   -0.501700
N      1.361100   -2.132600   -2.465800
C      1.679000   -0.933500   -3.030800
C      1.232700    0.068100   -2.190100
H      1.029100    1.791900    0.088300
H     -0.539500    1.807300   -0.762300
H     -0.489500    1.644900    1.014500
H     -0.717600   -3.035900   -0.354200
H      0.711700   -3.049300    0.421200
H      1.554600   -3.045700   -2.838800
H      2.192400   -0.875600   -3.976500
H      1.336000    1.127000   -2.362000
