16
gdb_11298
O     -0.528900    1.293000    0.752900
C      0.031100    0.211900    0.024600
C      0.819200   -0.761400    0.908500
N     -0.230300   -1.479600    1.634900
C     -1.431900   -1.570900    0.778400
C     -1.135700   -0.658200   -0.448000
C     -1.732400   -2.950500    0.373200
N     -1.946900   -4.047400    0.076500
H      0.173400    1.723200    1.250500
H      0.638000    0.575000   -0.816300
H      1.448600   -1.403400    0.270000
H      1.483500   -0.240000    1.609000
H      0.066100   -2.381400    1.982900
H     -2.302100   -1.193800    1.328700
H     -1.998500   -0.055700   -0.733400
H     -0.829900   -1.261000   -1.306000
