20
gdb_18260
C     -0.005900    1.551300    0.075200
C     -0.020100    0.020200    0.001300
C      0.687500   -0.542300   -1.236600
C      2.204800   -0.227200   -1.290900
O      2.836200   -1.291300   -1.999800
C      2.034000   -2.436600   -1.866100
C      1.605900   -2.863500   -0.485900
C      0.668400   -2.060400   -1.377800
H      1.014600    1.943900    0.139500
H     -0.475000    1.994100   -0.810700
H     -0.551300    1.909500    0.953600
H      0.446400   -0.399100    0.902000
H     -1.058700   -0.332500    0.005200
H      0.207300   -0.125500   -2.132600
H      2.441300    0.704900   -1.810800
H      2.611900   -0.153200   -0.270500
H      2.231200   -3.163900   -2.644600
H      1.368400   -3.912300   -0.342600
H      2.061500   -2.390800    0.377800
H     -0.229900   -2.533600   -1.757400
