19
gdb_14525
C     -0.038200    1.502500   -0.306500
C      0.010800    0.003400   -0.102200
C      1.190500   -0.747500   -0.608900
N      0.990600   -0.572100    0.841500
C     -1.316600   -0.718900   -0.052700
C     -2.421500   -0.239500    0.919100
C     -3.284200   -0.121900   -0.351800
O     -2.155500   -0.426200   -1.199300
H      0.968600    1.912400   -0.433100
H     -0.622400    1.742500   -1.199300
H     -0.500500    2.012100    0.546600
H      1.079200   -1.768000   -0.965700
H      1.977500   -0.181400   -1.100300
H      1.603100    0.162800    1.187100
H     -1.122500   -1.796200    0.029200
H     -2.744200   -0.966400    1.664900
H     -2.212000    0.709900    1.414100
H     -4.076000   -0.876600   -0.443600
H     -3.708300    0.864000   -0.574100
