15
gdb_19988
C      0.045000   -1.144800    0.461200
C      0.099300    0.039600    0.264800
C      0.111600    1.452400    0.005600
O      0.733900    2.313600    0.984800
C      1.347500    2.215000   -0.295500
C      2.714800    1.606400   -0.345900
C      3.743100    2.097600    0.609700
N      3.189300    0.740100    0.732500
H      0.016900   -2.192200    0.636300
H     -0.824800    1.853500   -0.381400
H      1.220400    3.099300   -0.924400
H      3.024200    1.303100   -1.344300
H      4.785200    2.147700    0.308000
H      3.433500    2.848000    1.332300
H      2.489900    0.730700    1.472800
