9
gdb_3931
O     -0.084200    0.002900    0.000500
C     -0.025500    1.191400    0.008900
N      1.202100    1.920000    0.001700
N      1.216100    3.259700    0.011200
C      2.508300    3.503900    0.000100
N      3.261200    2.361600   -0.016000
N      2.430100    1.369000   -0.015200
H     -0.869500    1.897600    0.022800
H      2.930000    4.495900    0.003100
