14
gdb_5155
N     -0.044300   -1.171900   -0.006100
C     -0.013300   -0.017500    0.001100
C      0.013700    1.455800    0.010400
N      1.346900    2.010200    0.000500
C      2.115600    2.255200    1.117400
C      3.347000    2.691600    0.696600
C      3.331700    2.702900   -0.727500
C      2.091400    2.273000   -1.128600
H     -0.537700    1.820700   -0.861800
H     -0.520000    1.809200    0.898300
H      1.712800    2.096500    2.105200
H      4.164700    2.982800    1.337300
H      4.135500    3.004400   -1.381000
H      1.667500    2.129900   -2.109900
