14
gdb_14088
O     -0.019300    1.368500   -0.047300
C      0.029200   -0.020800    0.056000
C     -0.479100   -0.693500    1.300100
C     -1.311300   -0.693600    0.042100
C     -2.669900   -0.095800   -0.277700
O     -2.964100   -1.275900   -1.103900
C     -1.743900   -1.847500   -0.813700
O     -1.313400   -2.892700   -1.183700
H      0.712700    1.734700    0.460600
H      0.826700   -0.512600   -0.500200
H     -0.036100   -1.635900    1.604400
H     -0.823300   -0.051500    2.104300
H     -3.379800   -0.018900    0.548500
H     -2.664900    0.814200   -0.879600
