17
gdb_20304
C      0.371600    1.367900    0.127000
O      0.880400    0.277700   -0.650200
C     -0.354800    0.093200    0.039800
C     -0.480900   -0.860600    1.190300
C     -0.085900   -2.282500    1.238100
C      1.243900   -2.565400    0.539000
C      1.857100   -1.496100    1.472900
N      0.539300   -1.250500    2.181800
H      0.934500    1.593800    1.030900
H      0.032600    2.228400   -0.446700
H     -1.222300    0.060900   -0.624200
H     -1.419200   -0.663400    1.712100
H     -0.766400   -3.044500    1.608000
H      1.620100   -3.570700    0.736000
H      1.276700   -2.375500   -0.535600
H      2.554600   -1.912800    2.202300
H      2.297700   -0.617500    1.004700
