17
gdb_2861
C     -0.386800    1.411100    0.386200
C      0.264100    0.137300   -0.167700
C      1.063300   -0.584300    0.891900
O      0.336200   -1.308000    1.894600
C      1.215300   -2.042900    1.023200
C      0.542300   -3.077600    0.155900
O      0.108600   -4.179100    0.937300
H      0.367000    2.106800    0.770700
H     -0.957200    1.930500   -0.389000
H     -1.067900    1.168900    1.207400
H     -0.506300   -0.523800   -0.573900
H      0.938500    0.390500   -0.996100
H      1.876500    0.016000    1.309500
H      2.111600   -2.412000    1.525900
H     -0.291600   -2.632400   -0.402800
H      1.258200   -3.478500   -0.570200
H     -0.462800   -3.818700    1.625100
