17
gdb_19186
C      0.009800    1.487700   -0.101300
N      0.025700    0.027900   -0.031700
C     -1.145500   -0.675400    0.630800
C     -0.730300   -2.122800    0.392900
C      0.571100   -2.101400    0.707700
C      0.787000   -0.639500    1.098500
C     -0.451400   -0.470600    2.049600
O     -0.531000    0.785000    2.669900
H      1.003100    1.819800   -0.424800
H     -0.696200    1.778000   -0.888300
H     -0.251900    2.018000    0.820300
H     -2.157600   -0.343100    0.398200
H     -1.363600   -2.938400    0.075700
H      1.308200   -2.890700    0.716500
H      1.781600   -0.274200    1.353100
H     -0.616200   -1.279300    2.774700
H     -1.314200    0.795500    3.228800
