15
gdb_8844
C      0.003800    1.492900    0.017500
N     -0.015400    0.031400   -0.044800
C     -0.033200   -0.686700    1.159200
O     -0.033500   -0.161800    2.244000
C     -0.016700   -0.664900   -1.247600
O     -0.032900   -1.880000   -1.309100
C      0.003600    0.151400   -2.537700
O     -0.000400   -0.697500   -3.642400
H      0.903900    1.896100   -0.453900
H     -0.878800    1.920000   -0.465700
H      0.000500    1.761900    1.073000
H     -0.046600   -1.769600    0.985900
H     -0.869700    0.823600   -2.549200
H      0.895100    0.799200   -2.536800
H     -0.015500   -1.596200   -3.274500
