10
gdb_1383
O     -0.367500    0.055200    0.004400
C     -0.096400    1.220700    0.008900
N      1.193800    1.762900    0.000100
C      2.407000    1.072200   -0.014500
O      2.541900   -0.119000   -0.023000
C      3.612700    2.042000   -0.021100
O      4.740200    1.646500   -0.034300
H     -0.852100    2.031100    0.019300
H      1.241400    2.772600    0.005100
H      3.366800    3.130800   -0.012900
