14
gdb_11091
N     -0.069300   -1.207900   -0.058800
C     -0.010000   -0.054400   -0.007400
C      0.078200    1.396200    0.073500
C     -0.128900    1.957600    1.519600
C      1.421000    2.057300    1.671000
C      1.547200    1.933800    0.120600
C      1.969200    3.241700    2.307600
N      2.392500    4.199200    2.798200
H     -0.558600    1.835000   -0.696900
H     -0.597400    2.942200    1.490200
H     -0.653200    1.322400    2.232600
H      1.819200    1.166100    2.163300
H      2.331600    1.279900   -0.258800
H      1.618500    2.910700   -0.359400
