17
gdb_12140
C      0.055100    1.523800   -0.029400
C     -0.048700    0.033400    0.081300
C     -1.357100   -0.789100    0.045800
C     -0.705100   -1.737700    1.073500
C     -1.328600   -2.480500    2.165500
O     -0.760100   -3.156600    1.033000
C      0.573800   -0.933900    1.064400
N      1.080500   -0.801700   -0.304900
H      1.075000    1.850700    0.188300
H     -0.195600    1.857500   -1.043200
H     -0.631000    2.019700    0.665200
H     -2.226900   -0.263700    0.450500
H     -1.618600   -1.222100   -0.925300
H     -0.793900   -2.618500    3.104900
H     -2.414800   -2.523200    2.240200
H      1.260500   -0.774000    1.888200
H      0.820000   -1.593300   -0.891100
