12
gdb_4700
O      0.085300    1.316900    0.235800
C      0.068900   -0.011600    0.006500
C      0.063000   -0.770900   -1.150100
C      0.043800   -2.126000   -0.741700
C      0.039100   -2.158000    0.640700
N      0.054600   -0.836800    1.081600
C      0.022300   -3.239700    1.539600
N      0.008300   -4.123200    2.292400
H      0.095100    1.778700   -0.608600
H      0.071300   -0.392900   -2.160100
H      0.034600   -2.994600   -1.380600
H      0.055100   -0.534000    2.041100
