16
gdb_2309
C      1.106100    1.437600    0.047900
C      0.238800    0.199200   -0.001800
C      0.783700   -1.160900    0.277100
N     -0.176100   -0.547700    1.189300
C      0.225500   -0.132400    2.540100
C      1.653400   -0.108800    2.874100
C      2.821500   -0.129600    3.161800
H      1.951300    1.325700    0.729000
H      1.498600    1.654600   -0.951500
H      0.524000    2.310800    0.365000
H     -0.570000    0.268300   -0.729600
H      0.426300   -2.033200   -0.264900
H      1.822600   -1.214400    0.596400
H     -0.210300    0.856000    2.730400
H     -0.267800   -0.820200    3.238800
H      3.851500   -0.135400    3.421300
