22
gdb_15666
C     -0.018700    1.634100   -0.025400
C     -0.040600    0.101500   -0.008900
C      0.742100   -0.528800   -1.164300
C      2.266100   -0.228600   -1.172700
C      2.844900   -1.436200   -1.869900
C      1.960500   -2.427500   -1.961500
C      0.639900   -2.084700   -1.304100
C      0.463400   -2.863800    0.012900
H      1.000600    2.022300    0.071300
H     -0.433300    2.025500   -0.961400
H     -0.609100    2.047500    0.798400
H      0.359200   -0.255300    0.948500
H     -1.082800   -0.241500   -0.050900
H      0.340600   -0.116600   -2.099900
H      2.502500    0.713000   -1.681000
H      2.670700   -0.133400   -0.153100
H      3.870800   -1.476000   -2.220300
H      2.155600   -3.405000   -2.391000
H     -0.207800   -2.341900   -1.952800
H      1.268300   -2.640400    0.720800
H     -0.491100   -2.632300    0.495900
H      0.484900   -3.942100   -0.177800
