24
gdb_6047
C      0.064300    1.551200    0.050500
C     -0.021900    0.015400    0.046700
C      0.864500   -0.536800    1.178300
C     -1.492100   -0.521700    0.049600
C     -2.298900   -0.032200    1.268200
C     -2.209100   -0.080500   -1.244200
C     -1.455700   -2.063900    0.068400
O     -2.777700   -2.566700   -0.091100
H      1.106700    1.867500   -0.060600
H     -0.503300    2.005700   -0.764900
H     -0.303300    1.971700    0.992500
H      0.418400   -0.328800   -0.900700
H      0.983600   -1.622400    1.132300
H      1.866400   -0.100000    1.111600
H      0.467300   -0.283400    2.167200
H     -2.457400    1.049500    1.237900
H     -3.278200   -0.516900    1.280400
H     -1.798800   -0.273100    2.212200
H     -1.628600   -0.360800   -2.131200
H     -3.185400   -0.563000   -1.318700
H     -2.363900    1.001200   -1.272000
H     -0.801500   -2.423000   -0.743800
H     -1.032300   -2.417500    1.018500
H     -2.747600   -3.521600    0.011800
