17
gdb_14299
C     -0.087500    1.559500    0.063100
C      0.070500    0.057200    0.063800
C      1.363000   -0.654300   -0.226700
O      2.560300    0.089200   -0.057000
C      2.616300    0.409000    1.273600
C      3.786300    1.234800    1.680700
N      1.680500   -0.024800    2.025000
C      0.761000   -0.733900    1.170300
H      0.740600    2.060000    0.568500
H     -0.138500    1.945100   -0.960500
H     -1.008300    1.847100    0.580400
H     -0.781400   -0.481600   -0.345300
H      1.461400   -1.445600   -0.959300
H      3.746900    2.220600    1.206000
H      3.785900    1.356200    2.763400
H      4.717200    0.756800    1.360500
H      0.276400   -1.603900    1.597300
