16
gdb_12346
O      0.007100    1.409000    0.085100
C     -0.022000    0.014100   -0.007100
C     -1.463200   -0.533600   -0.050200
C     -1.485900   -2.008700   -0.350500
C     -0.493700   -2.646200   -0.970700
C      0.752800   -1.962000   -1.476000
C      0.737800   -0.465300   -1.235800
O      1.284000    0.336500   -1.962900
H      0.542300    1.701500   -0.670700
H      0.477800   -0.442100    0.866300
H     -1.949900   -0.320600    0.907300
H     -2.027200    0.029400   -0.806600
H     -2.365900   -2.565400   -0.039700
H     -0.563800   -3.714300   -1.158300
H      1.643900   -2.373300   -0.976800
H      0.910800   -2.135800   -2.546700
