12
gdb_21249
C      0.054800    1.478500   -0.023700
O     -0.013800    0.045600   -0.001300
C      0.551700   -0.595500   -1.012100
C      0.644900   -1.942100   -1.261100
O      0.171700   -2.965200   -0.518800
N      1.319400   -2.079500   -2.425100
N      1.649300   -0.955900   -2.915300
O      1.154600    0.054700   -2.001400
H      1.094900    1.816400   -0.011000
H     -0.446100    1.876000   -0.911000
H     -0.459400    1.807400    0.878500
H      0.405800   -3.782700   -0.973800
