11
gdb_4334
O     -0.049400    1.319800    0.010000
C      0.000300   -0.011400    0.002700
N      1.167400   -0.588300   -0.007200
C      1.261100   -1.951400   -0.014800
O      2.253200   -2.611900   -0.024300
O      0.017500   -2.689300   -0.011400
C     -1.145100   -2.050300   -0.001200
C     -1.248600   -0.705600    0.006400
H      0.870300    1.629700    0.006200
H     -1.992700   -2.728200    0.000200
H     -2.196800   -0.190700    0.014700
