17
gdb_11853
C     -0.240100    1.457000    0.242100
N     -0.299700    0.002300    0.279600
C      0.610700   -0.629900    0.855000
C      0.911900   -2.093000    1.108400
C      2.142700   -1.535100    1.815300
C      2.788600   -1.882600    3.108400
C      3.570700   -1.948300    1.798300
O      1.751900   -0.175500    1.513700
H      0.637400    1.883600    0.742100
H     -0.245200    1.788200   -0.802200
H     -1.143500    1.864000    0.709700
H      0.186300   -2.606600    1.742400
H      1.101300   -2.683700    0.209900
H      3.018600   -1.065600    3.783400
H      2.506700   -2.810600    3.595000
H      3.823300   -2.921200    1.389600
H      4.309200   -1.174100    1.621500
