13
gdb_21792
O     -0.546800    1.092500    0.937700
C      0.070000    1.047600   -0.092700
C      1.451800    1.668000   -0.285800
C      1.396400    2.775900   -1.288300
C      1.880200    2.923400   -2.568300
N      1.514000    4.144500   -3.048200
N      0.822600    4.768400   -2.139500
N      0.742900    3.948400   -1.074400
H     -0.345100    0.564100   -1.004000
H      1.812100    2.012100    0.688500
H      2.134200    0.895400   -0.657000
H      2.466700    2.234600   -3.155000
H      0.241100    4.250700   -0.253200
