15
gdb_3187
C      0.035100    1.552000   -0.000200
C     -0.002000    0.043800   -0.054400
C      1.091700   -0.708400   -0.692500
O      0.985800   -0.642100    0.731200
C     -1.347300   -0.625100    0.001200
C     -2.546000   -0.002100    0.577500
O     -2.371500   -0.088200   -0.839500
H      1.043600    1.919900   -0.200300
H     -0.650500    1.969700   -0.742900
H     -0.264800    1.912500    0.989000
H      0.897500   -1.686200   -1.132100
H      1.929400   -0.163700   -1.125600
H     -1.288000   -1.714100    0.008900
H     -3.327000   -0.637900    0.991600
H     -2.497100    1.002000    0.992500
