14
gdb_20526
C     -0.087200    1.495600    0.009800
C      0.050900   -0.004200    0.002900
O      1.094400   -0.608200   -0.008300
N     -1.169600   -0.724300    0.010900
C     -1.295000   -2.090000    0.007000
C     -2.635600   -2.359300    0.017700
C     -3.259700   -1.081400    0.027900
N     -2.379700   -0.097600    0.023800
H      0.912400    1.928800    0.002500
H     -0.657400    1.831300   -0.859900
H     -0.641700    1.824600    0.892100
H     -0.417800   -2.714300   -0.002900
H     -3.107500   -3.328300    0.018200
H     -4.316100   -0.853400    0.038000
