16
gdb_17873
O      0.000200    0.036800   -0.035900
C     -0.015200    1.233600   -0.003200
C     -1.099500    2.311200    0.086400
C     -0.029300    3.162500    0.841400
C      1.042200    2.339600    0.057300
C      1.140100    2.928800   -1.377000
O     -0.069900    3.569700   -1.745100
C     -1.252000    2.897100   -1.344500
H     -2.065200    2.074700    0.535600
H     -0.046000    4.237400    0.658600
H     -0.012000    2.952000    1.911700
H      2.025700    2.128900    0.480000
H      1.913400    3.702100   -1.422100
H      1.407900    2.133100   -2.089600
H     -1.517900    2.094400   -2.049800
H     -2.046500    3.649600   -1.368300
