13
gdb_9998
O      0.063100    0.376800    1.189000
C     -0.024100    1.241500    0.345100
N      1.027300    1.736700   -0.367100
C      2.339100    1.135500   -0.278800
C      2.964900    1.043100   -1.679000
O      2.434000    1.480700   -2.663400
C      3.284300    1.856000    0.580000
C      4.102000    2.445500    1.233400
H     -0.976400    1.732400    0.069100
H      0.858700    2.316200   -1.177200
H      2.213400    0.116300    0.115200
H      3.963500    0.564800   -1.699600
H      4.804800    2.965600    1.837100
