20
gdb_8677
C     -0.063500    1.561000   -0.093600
C     -0.067200    0.035200    0.002500
C      0.729100   -0.524900    1.210200
C      0.709000   -2.067200    1.197900
O      2.069200   -0.008900    1.243600
C      2.938000   -0.399300    0.201200
C      0.118900   -0.057400    2.464100
C     -0.415300    0.294200    3.481000
H      0.955400    1.948500   -0.174900
H     -0.628200    1.893500   -0.969700
H     -0.517900    2.008500    0.794900
H     -1.094300   -0.337500    0.083700
H      0.344000   -0.404100   -0.914200
H      1.078100   -2.459700    0.246200
H      1.328000   -2.457400    2.009600
H     -0.313200   -2.426500    1.338100
H      3.143100   -1.478200    0.201000
H      2.568600   -0.114600   -0.793700
H      3.878200    0.128300    0.380700
H     -0.875100    0.612900    4.383800
