14
gdb_5550
C      0.071800    1.211300   -0.262500
O     -0.181700    0.099900    0.608200
C     -1.272900   -0.623300    0.306700
C     -1.397200   -1.941000   -0.010300
O     -0.414500   -2.867100   -0.175200
C     -2.801300   -2.194100   -0.136800
C     -3.416200   -1.008000    0.107900
O     -2.504200   -0.035000    0.390300
H      1.008300    1.658900    0.074200
H      0.170100    0.875200   -1.301500
H     -0.733600    1.949000   -0.193700
H      0.425600   -2.442400    0.033100
H     -3.268400   -3.134500   -0.381100
H     -4.447200   -0.697400    0.116700
