16
gdb_4500
C      0.099300    1.406100    0.162600
C     -0.037200   -0.072600    0.087400
N     -1.118500   -0.780700    0.183700
C     -0.697200   -2.103800    0.045500
C     -1.645100   -3.252100    0.096700
C      0.646700   -2.122600   -0.130900
N      1.558100   -3.159200   -0.314800
O      1.087000   -0.802100   -0.105000
H      0.757100    1.701300    0.987000
H      0.528000    1.811200   -0.760200
H     -0.886900    1.843600    0.319400
H     -1.106400   -4.193300   -0.033400
H     -2.176100   -3.279500    1.054400
H     -2.404000   -3.169000   -0.688900
H      2.256000   -3.201000    0.421400
H      2.044400   -3.098800   -1.204000
