16
gdb_3328
O     -0.058600    1.424100   -0.182100
C      0.067000    0.031800    0.073200
C     -1.325600   -0.565600   -0.001000
C     -2.055500   -0.682100   -1.366000
N     -2.336300   -2.151900   -1.160800
C     -1.013400   -2.792100   -1.094300
C     -1.495400   -2.080000    0.107400
H      0.820200    1.814200   -0.173700
H      0.729500   -0.447900   -0.663900
H      0.496600   -0.158300    1.071000
H     -1.960100   -0.047700    0.723200
H     -2.989200   -0.121400   -1.423600
H     -1.458100   -0.472800   -2.260100
H     -1.067800   -3.876600   -1.080700
H     -0.199900   -2.389800   -1.694700
H     -1.786900   -2.612100    1.008000
