16
gdb_9153
O      0.364000    0.787500    0.814000
C     -0.086900    0.137400   -0.364800
C     -1.413200   -0.465300   -0.232200
C     -2.519300   -0.931400   -0.117600
C     -3.847100   -1.498300    0.087200
O     -3.803000   -2.840400    0.591700
C     -4.701400   -0.637300    1.038400
O     -5.948500   -1.249800    1.256700
H     -0.305600    1.432900    1.063800
H     -0.087600    0.820400   -1.229200
H      0.655500   -0.639300   -0.579200
H     -4.379300   -1.577300   -0.868000
H     -3.105600   -2.874800    1.256900
H     -4.140800   -0.488500    1.977200
H     -4.881600    0.347100    0.595300
H     -5.752200   -2.182700    1.416100
