22
gdb_5865
C     -0.083200    1.560100    0.088200
C      0.008200    0.023100    0.043700
C      0.684000   -0.491600    1.328600
C     -1.416200   -0.558300   -0.037100
C      0.776000   -0.450800   -1.215100
C      2.241100    0.022300   -1.340200
C      2.878100   -0.474100   -2.554400
C      3.379200   -0.896400   -3.562200
H      0.899500    2.027400    0.206400
H     -0.536800    1.957200   -0.826800
H     -0.700500    1.884900    0.932900
H      0.089700   -0.225500    2.209500
H      0.785800   -1.582500    1.313500
H      1.681300   -0.063000    1.468800
H     -1.935100   -0.210200   -0.936900
H     -1.395500   -1.653200   -0.065400
H     -2.012800   -0.257200    0.830900
H      0.767800   -1.547000   -1.243500
H      0.232800   -0.118300   -2.107700
H      2.286300    1.117900   -1.336100
H      2.821500   -0.310700   -0.471400
H      3.833900   -1.262400   -4.448800
