17
gdb_5526
C     -0.329400    1.562700   -0.027200
C      0.031100    0.065900    0.030900
C      0.779800   -0.439600   -1.157100
C      2.102800   -0.772400   -1.346200
N      3.141700   -0.756800   -0.399200
N      2.325600   -1.219300   -2.626400
C      1.155100   -1.159600   -3.224700
N      0.192700   -0.685800   -2.393600
H      0.570300    2.179400   -0.115600
H     -0.964700    1.785600   -0.891200
H     -0.869800    1.872000    0.873400
H      0.647500   -0.128800    0.915500
H     -0.888600   -0.518700    0.174000
H      3.253500    0.143900    0.049700
H      4.011700   -1.004800   -0.855000
H      0.952700   -1.442500   -4.246700
H     -0.779100   -0.556200   -2.618800
