14
gdb_639
C     -0.077900    1.533700    0.126200
C      0.023500    0.011100   -0.011400
O      0.759800   -0.560500    1.055400
C     -1.357700   -0.623700   -0.095600
C     -1.595100   -2.006800    0.323700
O     -1.951400   -0.906800    1.179400
H      0.920800    1.965400    0.227700
H     -0.564100    1.980200   -0.748000
H     -0.662400    1.799700    1.013800
H      0.576000   -0.234700   -0.927400
H      0.154100   -0.576600    1.809500
H     -2.041100   -0.175000   -0.817500
H     -2.437900   -2.558800   -0.087600
H     -0.754400   -2.601500    0.671200
