13
gdb_1156
C     -0.010700    1.546000    0.011800
C     -0.001600    0.000500    0.019000
N      0.691900   -0.458900    1.232600
C     -1.374900   -0.519900    0.025700
C     -2.500500   -0.935700    0.033500
C      0.677400   -0.479800   -1.218900
N      1.260900   -0.854400   -2.144000
H      1.016100    1.922300   -0.003500
H     -0.536600    1.924400   -0.866300
H     -0.508800    1.892700    0.918600
H      0.682700   -1.474100    1.271000
H      1.666300   -0.171100    1.189600
H     -3.495600   -1.307900    0.038400
