22
gdb_6290
C     -0.122700    1.523600   -0.096500
C      0.038800   -0.001900   -0.052400
C      0.841800   -0.497000   -1.264000
C      0.709600   -0.483700    1.249100
C     -0.029100   -0.149100    2.566300
C     -1.436800   -0.764600    2.642800
C      0.807600   -0.677800    3.715200
O      1.382600   -0.003300    4.529500
H      0.850000    2.021600   -0.004500
H     -0.568400    1.839900   -1.045200
H     -0.763600    1.896200    0.708000
H     -0.960200   -0.453400   -0.114000
H      1.854900   -0.077500   -1.261300
H      0.933700   -1.588300   -1.265000
H      0.362500   -0.199400   -2.202300
H      0.844200   -1.573200    1.191800
H      1.719200   -0.053100    1.298200
H     -0.085400    0.935900    2.697900
H     -1.913700   -0.538400    3.601500
H     -2.082400   -0.375300    1.851700
H     -1.396800   -1.854700    2.534400
H      0.866600   -1.793600    3.752400
