15
gdb_14044
C      0.004100    1.470400   -0.140300
O      1.333300    1.607900    0.394900
C      1.500200    0.180100    0.469100
C      0.052600   -0.072000   -0.018200
C     -0.941800   -0.773600    0.937300
O     -1.525200   -1.828300    0.136900
C     -0.935600   -1.716500   -1.074000
N     -0.071400   -0.810600   -1.277500
H     -0.747500    1.974900    0.481700
H     -0.071900    1.826100   -1.174100
H      2.266000   -0.190300   -0.221700
H      1.725900   -0.158500    1.489300
H     -0.458400   -1.230700    1.805600
H     -1.747900   -0.118600    1.280300
H     -1.267600   -2.446300   -1.804000
