12
gdb_5152
N     -0.589300   -0.488900   -1.217800
C     -0.204200    0.198700   -0.373600
C      0.298600    1.074600    0.683100
C      1.549500    1.801800    0.286100
C      2.259700    1.768100   -0.866400
O      3.323000    2.615600   -0.726800
C      3.190100    3.118600    0.518900
N      2.164800    2.680100    1.171900
H     -0.483600    1.794900    0.951600
H      0.483300    0.476700    1.583900
H      2.165600    1.247900   -1.803300
H      3.939000    3.824100    0.842400
