13
gdb_88
C     -0.037100    1.532200    0.013300
C      0.013400    0.021200    0.019200
O     -1.174800   -0.597400   -0.409300
C      1.307400   -0.699000   -0.273900
C      0.708400   -0.713700    1.122300
H      0.890300    1.962400    0.402800
H     -0.178500    1.915600   -1.005200
H     -0.870100    1.889600    0.627300
H     -1.283500   -0.402300   -1.346900
H      1.239700   -1.616400   -0.847800
H      2.205400   -0.115200   -0.447400
H      1.195400   -0.138900    1.902400
H      0.247400   -1.636700    1.453800
