22
gdb_15425
C     -0.245100    1.530300    0.049800
C     -0.191400    0.010900   -0.128500
C      0.924400   -0.444600   -1.079500
C      0.975100   -1.952200   -1.235900
C      0.134400   -2.665600   -2.268100
C      1.638200   -2.660400   -2.396900
C      2.312300   -1.927600   -3.526300
O      2.320200   -2.787700   -4.660700
H      0.697900    1.915500    0.453900
H     -0.424000    2.035300   -0.906100
H     -1.045600    1.824800    0.735700
H     -0.048800   -0.468800    0.849000
H     -1.154600   -0.353900   -0.506700
H      0.776100    0.033500   -2.055400
H      1.889500   -0.076500   -0.703000
H      1.077800   -2.472000   -0.285200
H     -0.365200   -3.590500   -2.002300
H     -0.420200   -2.048800   -2.969600
H      2.139200   -3.593300   -2.151800
H      1.780200   -0.990500   -3.749100
H      3.340500   -1.656200   -3.235300
H      2.820400   -2.353200   -5.358000
