18
gdb_19587
C     -0.018300    1.589800    0.018400
C     -0.058200    0.067700   -0.003300
C      1.122100   -0.611900   -0.746300
O      1.955800   -0.312100    0.433000
C      0.707600   -0.628000    1.152700
C      0.589300   -2.144900    0.898100
C     -0.408900   -2.670200   -0.103200
C      0.913800   -2.132200   -0.588800
H      0.988100    1.949200    0.241000
H     -0.328500    1.998700   -0.949600
H     -0.704900    1.984000    0.775700
H     -1.069900   -0.274800   -0.227000
H      1.535800   -0.235200   -1.682300
H      0.692400   -0.268100    2.181900
H      1.073800   -2.822700    1.590200
H     -0.504900   -3.752100   -0.133300
H     -1.342700   -2.159300   -0.302600
H      1.645000   -2.800400   -1.027100
