16
gdb_9517
C     -0.265400    1.639100    0.196600
C     -0.070100    0.135900    0.104500
C     -1.360500   -0.621700   -0.240700
O     -1.767300   -0.310100   -1.556100
O      0.956500   -0.236900   -0.877800
C      1.775500   -0.928400    0.088400
C      0.789300   -0.529500    1.191500
O      0.716500   -0.659100    2.374900
H      0.693800    2.154600    0.286300
H     -0.780700    1.995900   -0.699000
H     -0.876500    1.879700    1.072100
H     -1.200400   -1.703700   -0.114700
H     -2.168400   -0.320800    0.433100
H     -1.008400   -0.504300   -2.121200
H      1.853600   -2.006400   -0.101000
H      2.782300   -0.502400    0.177000
