16
gdb_7329
C     -0.297400    1.365900   -0.247200
C      0.368000    0.062400    0.198500
N      1.083800   -0.595200   -0.879500
C      0.746000   -1.794400   -1.383900
O     -0.173300   -2.512500   -1.016700
C      1.686200   -2.206000   -2.540000
N      1.351700   -3.410200   -3.037800
O      2.601300   -1.492900   -2.916000
H      0.441500    2.079300   -0.627400
H     -1.028300    1.178500   -1.038900
H     -0.813400    1.835100    0.596000
H      1.061300    0.256500    1.026300
H     -0.377400   -0.654100    0.551900
H      1.875300   -0.154300   -1.330800
H      0.564000   -3.885700   -2.625100
H      1.872300   -3.811900   -3.798200
