18
gdb_13970
C     -0.018000    1.489400   -0.013800
C     -0.018700    0.034000   -0.008700
C     -0.021600   -1.172500   -0.009100
C     -0.002500   -2.595500    0.019100
C     -0.378200   -3.449300   -1.174000
C     -1.172000   -3.612100    0.084600
C     -0.398200   -4.465100    1.093100
C      0.793100   -3.456100    1.022400
H      0.789400    1.885800    0.612400
H      0.124300    1.888600   -1.024600
H     -0.960800    1.894000    0.372200
H     -0.872400   -2.912200   -1.976000
H      0.297200   -4.236200   -1.505200
H     -2.233100   -3.396900    0.119300
H     -0.859800   -4.485600    2.082300
H     -0.192900   -5.495100    0.782900
H      1.751300   -3.838300    0.656100
H      0.958500   -2.941900    1.970400
