21
gdb_10333
C     -0.229600    1.499600   -0.063700
C      0.139200    0.013700   -0.010000
N      0.813200   -0.471000   -1.208300
C      2.135700   -0.785600   -1.171300
O      2.799200   -1.208100   -2.099200
C      0.017300   -0.653500   -2.441600
C      0.521500    0.231800   -3.589300
C     -0.064800   -2.133600   -2.841100
H      0.666400    2.116900   -0.178900
H     -0.901100    1.717200   -0.899900
H     -0.738500    1.796700    0.858800
H      0.801600   -0.169200    0.842100
H     -0.761800   -0.589900    0.160400
H      2.570500   -0.612300   -0.165600
H     -0.991900   -0.319700   -2.177100
H     -0.143100    0.133100   -4.453500
H      0.539400    1.284600   -3.291500
H      1.529300   -0.063600   -3.884100
H     -0.460800   -2.738100   -2.019000
H     -0.731100   -2.251400   -3.701500
H      0.923900   -2.510700   -3.106900
