18
gdb_8218
C      0.949800    0.764600    0.000200
C     -0.357700    0.002700    0.014300
O     -1.148700    0.069400    0.927000
C     -0.615900   -0.920700   -1.177700
C     -0.080100   -2.323200   -0.891500
C     -0.058300   -3.342700   -2.052100
C      1.459600   -3.397500   -1.787400
O      1.365900   -2.359100   -0.787800
H      1.772100    0.057900   -0.156800
H      0.966000    1.465700   -0.843000
H      1.080700    1.311400    0.934700
H     -1.698300   -0.987900   -1.327200
H     -0.145100   -0.537300   -2.089300
H     -0.541600   -2.703600    0.029300
H     -0.612700   -4.267200   -1.886900
H     -0.337700   -2.922600   -3.020400
H      1.823800   -4.339400   -1.359200
H      2.114400   -3.109200   -2.617400
