22
gdb_6174
C      0.320300    0.712600    1.522000
C     -0.470100   -0.567000    1.833600
C     -1.150300   -0.495200    3.208400
C     -1.503800   -0.808100    0.752400
O     -1.037200   -1.195400   -0.546300
C     -1.884500   -2.112200    0.173500
C     -1.228800   -3.410700    0.592400
C     -3.270500   -2.269200   -0.419000
H      1.101300    0.882800    2.270200
H      0.793600    0.644100    0.538600
H     -0.337200    1.590200    1.520600
H      0.234600   -1.405300    1.834900
H     -1.882800    0.320100    3.242500
H     -1.675700   -1.425700    3.446600
H     -0.415400   -0.310400    3.998200
H     -2.271600   -0.027400    0.718000
H     -1.191100   -4.100000   -0.258500
H     -0.207600   -3.257500    0.943300
H     -1.804500   -3.897600    1.387300
H     -3.238400   -2.921400   -1.298900
H     -3.957100   -2.720100    0.305900
H     -3.674200   -1.301600   -0.726500
