14
gdb_2841
O      0.025700    1.350700   -0.406600
C      0.015900    0.137400    0.326000
C     -1.345200   -0.516100    0.262000
N     -1.690500   -1.057200   -1.059400
C     -1.528300   -1.991600    0.082700
C     -0.433600   -2.922900    0.040100
C      0.460800   -3.726200    0.034100
H     -0.213900    1.115000   -1.310700
H      0.775200   -0.566300   -0.040500
H      0.265100    0.395500    1.360300
H     -2.131400   -0.002800    0.812700
H     -2.680900   -0.934300   -1.253100
H     -2.441000   -2.402600    0.509600
H      1.257000   -4.428900    0.019300
