13
gdb_12295
O     -0.003600   -0.040500    0.195300
C     -0.008300    1.164300    0.079500
N     -1.158800    1.907200    0.135200
C     -1.301300    3.339800    0.013400
C     -0.007900    4.048000   -0.198600
C      1.173800    3.427700   -0.270400
C      1.293300    1.966600   -0.142200
O      2.351700    1.385100   -0.203000
H     -1.995100    1.358700    0.282000
H     -1.977800    3.586600   -0.821000
H     -1.785400    3.753200    0.913100
H     -0.078300    5.127900   -0.294800
H      2.101000    3.970000   -0.425900
