14
gdb_5213
C     -0.027200    1.472700    0.010700
C     -0.003600    0.018300    0.003000
C      0.021700   -1.187800   -0.003500
C      0.025200   -2.602100   -0.011200
C      1.115000   -3.429700   -0.022000
O      0.733600   -4.728800   -0.026900
C     -0.627800   -4.745400   -0.019000
C     -1.119800   -3.483800   -0.009000
H      0.988000    1.884500    0.003100
H     -0.551500    1.868700   -0.866500
H     -0.534500    1.859600    0.901900
H      2.175300   -3.241600   -0.027300
H     -1.082600   -5.721900   -0.021600
H     -2.156000   -3.186600   -0.001000
