8
gdb_32
N     -0.036100    1.487600    0.036800
C     -0.010400    0.025200   -0.015100
C     -1.371800   -0.521100    0.027400
N     -2.440300   -0.959600    0.033700
H      0.917300    1.835500    0.052000
H     -0.471600    1.856800   -0.802800
H      0.489500   -0.408800   -0.897200
H      0.528300   -0.345300    0.864700
