12
gdb_698
N     -0.111900    1.576300   -0.045000
C      1.363200    1.310500    0.008800
C      1.262900    0.033500    0.919200
N      1.972000   -0.886800   -0.029200
C      1.230900    0.062200   -0.922800
C     -0.009600    0.081400    0.012700
H     -0.436100    1.939500    0.855500
H      2.121300    2.096600   -0.001100
H      1.328100   -0.049200    2.006300
H      2.972800   -0.671900   -0.044500
H      1.251400    0.021700   -2.011400
H     -0.865900   -0.592200    0.007600
