14
gdb_13758
N      0.013400    1.146700   -0.082800
C     -0.004400   -0.204000    0.153200
O      0.958200   -0.930600    0.053700
N     -1.266500   -0.664900    0.593700
C     -2.498200   -0.567100   -0.152500
C     -1.835200   -1.900900    0.084700
C     -1.203700   -2.557800   -1.116100
O     -0.951100   -1.972900   -2.137800
H      0.929300    1.560000   -0.151700
H     -0.717600    1.723400    0.299800
H     -3.384200   -0.300500    0.417400
H     -2.444200   -0.202200   -1.175100
H     -2.213600   -2.578000    0.846700
H     -1.006100   -3.643800   -1.002700
