13
gdb_18416
O      0.026800    0.012800    0.046600
C     -0.021200    1.198300    0.079500
C     -1.128100    2.265900    0.135900
C      0.021100    3.265300    0.042700
C      1.019900    3.069500    1.115800
C      0.690600    2.575200    2.423200
C      0.432900    2.173500    3.526500
N      1.070500    2.162600   -0.094600
H     -1.758700    2.232300   -0.755700
H     -1.751800    2.290000    1.031400
H      0.055000    4.125700   -0.614500
H      1.870400    3.745900    1.093300
H      0.207500    1.811200    4.499400
