17
gdb_9831
C      0.046500    1.403700    0.103200
N      0.119200   -0.037100   -0.014600
C      0.666400   -0.655300   -1.093800
O      1.196200   -0.074100   -2.029300
C      0.563400   -2.161800   -1.053300
O      0.014900   -2.718500    0.117200
C      0.197500   -2.843500   -2.348400
C      1.602600   -2.944100   -1.820600
H      0.486800    1.746500    1.046000
H      0.608100    1.828100   -0.730300
H     -0.988500    1.761800    0.052000
H     -0.366300   -0.629600    0.640200
H      0.734900   -2.855300    0.743000
H     -0.442700   -3.712700   -2.254900
H      0.021400   -2.203700   -3.204300
H      2.373400   -2.364600   -2.313500
H      1.910400   -3.889200   -1.386500
