14
gdb_3459
O     -0.000700   -0.016200   -0.193800
C     -0.012900    1.156100    0.042800
C     -1.056900    2.295300    0.051300
C     -0.802400    2.996900    1.393300
C      0.766500    3.017800    1.370300
C      1.000200    2.322800    0.021000
N     -0.050600    3.015600   -0.831800
H     -2.076000    2.180800   -0.312600
H     -1.227600    4.002400    1.398000
H     -1.213200    2.436400    2.236400
H      1.164700    4.034300    1.362900
H      1.216800    2.468900    2.200800
H      2.010900    2.235500   -0.372700
H     -0.058300    2.581300   -1.755800
