15
gdb_16880
O     -0.010800   -0.039100   -0.225200
C     -0.022400    1.162100   -0.048800
C     -1.316700    1.965800    0.098100
O     -1.175200    3.070300    0.983500
C     -0.185100    3.959800    0.565600
C      1.040600    4.078200    1.429400
C      1.105100    3.349400    0.097600
N      1.110300    1.920700    0.058800
H     -1.658000    2.290600   -0.897100
H     -2.072900    1.304400    0.522200
H     -0.559800    4.842600    0.049900
H      1.527300    5.043500    1.510500
H      1.052300    3.463800    2.321900
H      1.629500    3.834600   -0.721600
H      1.985500    1.416800    0.044400
