12
gdb_21347
N     -0.038100   -1.162100   -0.005900
C      0.000000   -0.008500    0.001300
C      0.022000    1.461000    0.010400
N      1.364500    2.004200    0.000300
N      2.041500    2.224200    1.123800
C      3.227100    2.646700    0.687500
C      3.212200    2.657200   -0.716700
N      2.017600    2.241100   -1.134000
H     -0.499200    1.837600   -0.872300
H     -0.481400    1.826200    0.908200
H      4.006600    2.922400    1.379300
H      3.976900    2.943400   -1.420600
