20
gdb_9775
C     -0.029400    1.458200   -0.191100
O     -0.052200    0.041800   -0.174200
C      0.731700   -0.605600   -1.169600
C      2.212200   -0.255700   -1.066400
C      0.398800   -2.113700   -1.026000
C     -0.460600   -2.438000   -2.268500
C     -0.834900   -1.043700   -2.786600
O      0.294600   -0.234400   -2.467100
H      0.908700    1.863300    0.212900
H     -0.179300    1.849500   -1.203600
H     -0.851400    1.791200    0.447700
H      2.576200   -0.457900   -0.055400
H      2.785000   -0.855200   -1.777900
H      2.384700    0.797400   -1.300700
H      1.308100   -2.717100   -0.987700
H     -0.147100   -2.262100   -0.093300
H      0.131000   -2.968200   -3.020400
H     -1.335000   -3.050600   -2.036500
H     -0.986700   -0.991800   -3.867400
H     -1.735100   -0.663100   -2.284300
