12
gdb_20780
C      0.060300    1.485300   -0.012500
C     -0.013000   -0.006100    0.022100
N     -0.142400   -0.631700   -1.098000
O     -0.209900   -2.007500   -1.066300
N     -0.141000   -2.744500    0.156700
N     -0.017700   -2.143400    1.221600
C      0.060800   -0.719200    1.291300
N      0.189100   -0.122000    2.406900
H      0.998400    1.824300    0.437900
H     -0.010700    1.839300   -1.041800
H     -0.747400    1.913600    0.589100
H      0.220100   -0.811000    3.163700
