14
gdb_14335
O     -0.130500   -0.016300   -0.069100
C     -0.080800    1.170100   -0.041200
O     -1.129600    1.995000   -0.313700
C     -0.746100    3.358400   -0.162500
C     -1.091300    3.977200    1.215100
C      0.417200    3.904600    1.618400
C      0.750000    3.286300    0.237600
O      1.033600    1.890600    0.264900
H     -1.042700    3.907800   -1.056600
H     -1.499800    4.987900    1.155900
H     -1.769500    3.357700    1.804300
H      0.889700    4.873000    1.794500
H      0.653300    3.241300    2.452100
H      1.500500    3.785000   -0.376600
