13
gdb_5051
O      0.003600    0.273000   -0.945900
C     -0.022000    1.241500   -0.219300
C     -1.302300    1.814300    0.255600
C     -1.608400    3.128600    0.191600
C     -0.719800    4.202000   -0.168800
C      0.637600    4.172700   -0.172200
C      1.444700    3.051800    0.253100
N      1.154700    1.800600    0.284000
H     -2.063800    1.089500    0.528400
H     -2.635100    3.419400    0.400300
H     -1.196600    5.154100   -0.388300
H      1.173700    5.094900   -0.377700
H      2.438000    3.315200    0.628100
