20
gdb_8443
C     -0.151900    1.527300    0.109400
C      0.127700    0.060900    0.030900
O     -0.750700   -0.823700    0.744800
C      0.660400   -0.911300    1.000800
C      1.256000   -1.790500   -0.100100
C      0.707600   -0.757200   -1.163800
C     -0.332600   -1.291900   -2.143500
C      1.839900   -0.019400   -1.876800
H      0.711100    2.113900   -0.220100
H     -1.003400    1.796300   -0.526500
H     -0.396200    1.810900    1.136700
H      0.980400   -0.783900    2.029500
H      2.348100   -1.836400   -0.086700
H      0.848000   -2.803500   -0.147300
H     -1.156200   -1.766500   -1.604600
H     -0.744500   -0.486400   -2.763000
H      0.110300   -2.032800   -2.819000
H      2.378600   -0.696200   -2.549200
H      1.455300    0.810800   -2.480200
H      2.565700    0.390500   -1.165400
