16
gdb_18201
N     -0.028700   -1.154200   -0.130500
C     -0.019300   -0.000200   -0.066300
C     -0.008400    1.459600    0.000600
C     -0.649900    2.027800    1.303200
C      0.011500    3.411400    1.500200
C      1.389300    3.255800    0.882000
N      2.062400    2.004300    1.290100
C      1.389800    2.077400   -0.017600
H     -0.551400    1.835000   -0.876100
H     -1.737700    2.077200    1.229700
H     -0.395500    1.371000    2.135300
H     -0.536300    4.193300    0.961000
H      0.046500    3.697300    2.555500
H      1.992000    4.131300    0.663500
H      3.066100    2.091500    1.156700
H      1.976300    2.031200   -0.928500
