13
gdb_20470
C      0.934300    1.044000   -0.027000
O      0.153600    0.159200   -0.829800
C     -0.411400    0.619600    0.400800
C     -0.617200   -0.408100    1.438700
C     -0.149000   -1.701300    1.487600
N     -0.648300   -2.175500    2.652000
N     -1.386700   -1.250500    3.291700
N     -1.370000   -0.178200    2.554000
H      1.805100    0.598700    0.451200
H      1.078200    2.043400   -0.434900
H     -1.226700    1.334500    0.301600
H      0.450300   -2.287700    0.813400
H     -0.549300   -3.092600    3.057400
