18
gdb_8685
C     -0.214900    1.527800    0.006200
C      0.059400    0.025900   -0.068100
C      0.790500   -0.542600    1.163200
O     -0.036500   -0.245200    2.308400
C      0.903900   -2.087700    1.075400
O     -0.371900   -2.682000    1.104500
C      2.124600    0.038100    1.327700
C      3.234400    0.470100    1.495000
H      0.716600    2.098200    0.076500
H     -0.749100    1.863400   -0.887600
H     -0.824700    1.766500    0.880600
H     -0.875000   -0.535100   -0.164900
H      0.665300   -0.210100   -0.950000
H      0.527400   -0.261300    3.089400
H      1.388400   -2.379800    0.138900
H      1.537200   -2.436800    1.907200
H     -0.840100   -2.243900    1.828200
H      4.211000    0.865900    1.630800
