17
gdb_14915
C      0.007500   -1.196800    0.039800
C      0.009500    0.004000   -0.007700
C     -0.000800    1.462100    0.003500
C     -0.733200    1.991000    1.259400
O     -0.709400    3.403800    1.296200
C      0.616700    3.911900    1.311500
C      1.383200    3.453800    0.069800
N      1.368500    1.997900   -0.105400
H      0.004900   -2.258600    0.059500
H     -0.554500    1.828800   -0.872800
H     -1.784700    1.691200    1.252900
H     -0.252900    1.567000    2.157700
H      0.530100    5.002200    1.351800
H      1.140400    3.572000    2.222700
H      0.922700    3.906400   -0.817800
H      2.423800    3.792700    0.111100
H      1.944900    1.557400    0.607300
