21
gdb_9345
C     -0.055000    1.407700   -0.365600
C     -0.298700   -0.103300   -0.380800
C     -1.270900   -0.546300    0.719400
N     -1.506000   -1.980200    0.734400
C     -2.668400   -2.548200    0.295400
O     -3.606800   -1.893000   -0.124700
C     -2.721500   -4.072100    0.409700
C     -3.610400   -4.697200   -0.666200
H      0.640000    1.705200   -1.156300
H     -0.988800    1.959500   -0.517300
H      0.370000    1.733300    0.590600
H     -0.705900   -0.411800   -1.350500
H      0.654800   -0.634700   -0.259600
H     -0.893900   -0.230700    1.701200
H     -2.247700   -0.079600    0.571100
H     -0.754900   -2.585700    1.022400
H     -1.710100   -4.495000    0.381100
H     -3.123400   -4.303200    1.405200
H     -4.589800   -4.214800   -0.664600
H     -3.177300   -4.563900   -1.662200
H     -3.739700   -5.768900   -0.491300
