20
gdb_17446
C     -0.067400    1.532700   -0.043500
C      0.103200    0.031000    0.049200
C      1.391300   -0.708200   -0.204600
C      2.592700   -0.005200    0.378600
C      3.184400   -0.836700    1.489200
C      1.944500   -0.024300    1.778000
C      1.914200    1.029800    2.852700
C      0.735500   -0.726600    1.194700
H      0.816700    2.068000    0.309600
H     -0.244300    1.834900   -1.082100
H     -0.925100    1.870100    0.549400
H     -0.751300   -0.515000   -0.351100
H      1.445000   -1.533600   -0.907100
H      3.147600    0.804400   -0.083400
H      3.138000   -1.921800    1.437200
H      4.101500   -0.451100    1.927200
H      2.880200    1.539300    2.935700
H      1.148700    1.788000    2.660700
H      1.696300    0.583800    3.831000
H      0.222500   -1.560700    1.663800
