18
gdb_4829
C     -0.322100    1.462800   -0.190600
C      0.133300    0.006300    0.007000
C      0.929800   -0.527700   -1.133100
C      2.211000   -0.962700   -1.265600
C      2.375100   -1.345000   -2.638900
C      1.182700   -1.115800   -3.250200
C      0.690200   -1.296400   -4.640800
O      0.291800   -0.616700   -2.341300
H      0.539000    2.130200   -0.293500
H     -0.930800    1.557800   -1.093900
H     -0.919500    1.801900    0.661200
H      0.745700   -0.077400    0.910500
H     -0.749300   -0.627200    0.167800
H      2.950200   -1.007800   -0.480600
H      3.263400   -1.739700   -3.107500
H     -0.156900   -1.991000   -4.683300
H      0.355500   -0.348400   -5.078000
H      1.490600   -1.696500   -5.267300
