15
gdb_14084
C     -0.130800    1.434500   -0.103700
N      0.079900   -0.005700   -0.018200
C      1.442800   -0.493900   -0.163800
C      0.757900   -0.505400    1.156800
C      1.135800    0.172100    2.475000
O      0.699100   -1.028400    3.186600
C      0.312700   -1.666000    2.021300
O     -0.164400   -2.745200    1.902900
H      0.706600    2.029000    0.297000
H     -0.271700    1.704400   -1.153900
H     -1.040500    1.700000    0.442700
H      1.562000   -1.419300   -0.719700
H      2.244500    0.235200   -0.283800
H      2.196600    0.363100    2.649700
H      0.533800    1.036900    2.764800
