17
gdb_17745
C     -0.063400    1.471400    0.023700
C      0.016000   -0.027600   -0.040100
C      0.234400   -0.819300   -1.347600
C     -0.504100   -1.924800   -0.579000
C      0.284700   -2.248600    0.698000
C     -0.638700   -1.396000    1.514600
C      0.681700   -0.817300    1.105000
N     -1.268600   -0.859700    0.237500
H      0.920600    1.919700   -0.158000
H     -0.760900    1.855800   -0.726600
H     -0.407400    1.799900    1.010100
H     -0.377900   -0.417000   -2.160100
H      1.255800   -1.004000   -1.689900
H     -1.081100   -2.707900   -1.070700
H      0.859500   -3.122700    0.975000
H     -1.137000   -1.529500    2.466400
H      1.561100   -0.591600    1.695000
