13
gdb_9036
N     -0.209700    0.721500   -0.963900
C     -0.242500   -0.302000   -0.072500
C      1.098500   -0.948800    0.161800
O      2.090900   -0.624100   -0.440600
N     -1.205200   -0.788200    0.627200
C     -2.532500   -0.200100    0.530300
C     -3.063600   -0.070400   -0.837600
N     -3.423400    0.046300   -1.930500
H      0.662900    0.815800   -1.465700
H     -1.046900    1.020100   -1.438900
H      1.074300   -1.742800    0.929700
H     -3.229300   -0.815600    1.107400
H     -2.545900    0.803500    0.983400
