19
gdb_2464
C      0.017200    1.559800    0.013100
C      0.070000    0.033500    0.007500
C      0.838400   -0.585000   -1.189000
C      1.292800   -1.963700   -0.707100
C      2.557700   -2.031100    0.110400
C      1.223500   -1.971600    0.809800
C      0.726300   -0.597800    1.262600
H      1.026200    1.986700    0.061500
H     -0.463700    1.947200   -0.891700
H     -0.544500    1.938000    0.874200
H     -0.958200   -0.350300   -0.041500
H      0.206600   -0.651800   -2.080000
H      1.697200    0.043800   -1.459700
H      1.008400   -2.838000   -1.281900
H      3.099500   -2.971300    0.130300
H      3.195100   -1.151000    0.144200
H      0.888200   -2.851800    1.347100
H      1.556500    0.027600    1.617200
H      0.015900   -0.673700    2.091500
