15
gdb_15551
C      0.049000    1.550800   -0.171000
C     -0.028600    0.039700    0.043200
N      0.592900   -0.718700   -1.059400
C      1.840600   -1.112700   -0.620100
N      2.083800   -1.045400    0.633200
C      0.838400   -0.516200    1.234700
C      1.109600    0.468000    2.285400
N      1.289900    1.250000    3.116300
H      1.087600    1.882200   -0.265200
H     -0.491000    1.832900   -1.081000
H     -0.402800    2.085400    0.668500
H     -1.070700   -0.266100    0.166600
H      0.508800   -0.345300   -1.994800
H      2.557200   -1.503100   -1.337100
H      0.306900   -1.353400    1.706900
