18
gdb_12230
C      0.068900    1.353000   -0.087900
N      0.160700   -0.099000   -0.081000
C      0.656600   -0.662400    0.934700
N      1.183300   -0.287800    2.163800
C      1.014700   -1.639300    2.757600
C     -0.141600   -1.790400    3.731400
C      0.730600   -2.141200    1.292300
O     -0.446400   -2.869900    1.073100
H      1.013800    1.804900   -0.418100
H     -0.706400    1.665700   -0.792900
H     -0.177800    1.783500    0.896100
H      1.037700    0.593000    2.638300
H      1.946000   -2.014900    3.194100
H     -1.082100   -1.466700    3.278400
H     -0.254700   -2.838500    4.024200
H      0.035400   -1.202300    4.638400
H      1.595800   -2.658500    0.859500
H     -0.955100   -2.367500    0.424100
