17
gdb_10905
C     -0.036300    1.626300   -0.069600
C      0.025500    0.105400   -0.052000
C      0.730600   -0.646300   -1.197000
N      2.130200   -0.197000   -1.170400
C      1.702500   -1.327400   -0.268100
C      2.375900   -2.662700   -0.281800
C      1.033400   -0.619400    0.895900
O      1.116200   -0.721800    2.085400
H      0.933600    2.042400   -0.350900
H     -0.788800    1.984000   -0.780100
H     -0.302500    2.005400    0.921800
H     -0.962000   -0.330100    0.148200
H      0.279300   -1.056200   -2.092000
H      2.618100   -0.641800   -1.949200
H      2.516000   -3.024100   -1.306400
H      3.359500   -2.609800    0.196700
H      1.781200   -3.402800    0.262500
