17
gdb_7798
C      0.013500    1.507000    0.074400
C     -0.025000   -0.002500   -0.088900
C      0.818500   -0.515400   -1.245400
O      0.804900   -1.928100   -1.260100
C      1.419400   -2.442200   -0.094900
C      0.875700   -1.858400    1.195400
N      0.940000   -2.524900    2.268000
O      0.429800   -0.571600    1.161200
H      1.041600    1.855900    0.211000
H     -0.409000    1.997000   -0.808000
H     -0.569400    1.807400    0.948500
H     -1.058000   -0.343300   -0.243700
H      0.398400   -0.178700   -2.197300
H      1.850500   -0.133100   -1.162000
H      1.268300   -3.521400   -0.083800
H      2.505500   -2.246500   -0.119600
H      0.591800   -1.967200    3.051100
