19
gdb_7003
C     -0.125300    1.515900   -0.050400
N     -0.015500    0.080500    0.084900
C     -1.235800   -0.698300    0.360500
C     -0.393700   -1.560100    1.309600
O     -0.547800   -2.594500    1.886700
C      0.759900   -0.538500    1.210600
C      2.114600   -1.094900    0.783200
C      0.866400    0.294000    2.497300
H      0.870400    1.959500   -0.150600
H     -0.682400    1.752300   -0.963300
H     -0.639500    2.012500    0.792600
H     -2.026100   -0.152300    0.905900
H     -1.689800   -1.193900   -0.505000
H      2.019700   -1.673300   -0.138800
H      2.825700   -0.280700    0.604200
H      2.526500   -1.741500    1.564400
H      1.262800   -0.326400    3.306200
H      1.545600    1.141500    2.356400
H     -0.103700    0.684500    2.819500
