14
gdb_3479
C     -0.041400    1.473300    0.021200
C      0.042900   -0.011900    0.023200
C      1.044500   -1.001900   -0.520900
C     -0.142900   -1.947400   -0.821400
C     -0.524900   -1.967100    0.613700
C      0.648400   -1.022400    0.967500
N     -1.137700   -0.941100   -0.303900
H      0.927600    1.910800    0.284400
H     -0.328300    1.847300   -0.967700
H     -0.783500    1.823900    0.746900
H      2.019300   -0.856700   -0.965100
H     -0.374900   -2.617600   -1.640800
H     -1.128900   -2.656400    1.192000
H      1.272300   -0.895300    1.841100
