10
gdb_21970
O     -0.040200    0.014700    0.004500
N     -0.032300    1.241600    0.008000
O      0.952100    1.965300    0.003200
C     -1.320900    1.862700    0.019000
C     -2.580000    1.353600    0.026900
N     -3.468600    2.410400    0.036100
C     -2.712000    3.465400    0.033500
O     -1.386100    3.216600    0.023100
H     -2.888300    0.321900    0.026400
H     -3.008000    4.502700    0.038300
