14
gdb_11150
O      0.026900    0.034000    0.004900
C     -0.008800    1.234800    0.010800
C     -1.280600    2.100200    0.032300
C     -0.750600    3.502900    0.031100
C      0.593500    3.555200    0.012800
C      1.208800    2.171000   -0.001900
C      1.387800    4.726200    0.006900
C      2.105300    5.694300    0.001300
H     -1.909800    1.865400   -0.836500
H     -1.885400    1.857800    0.916200
H     -1.388600    4.377900    0.043700
H      1.849400    1.975600    0.866400
H      1.825300    1.983300   -0.889000
H      2.726000    6.555800   -0.003400
