15
gdb_12752
C     -0.106400    1.515300    0.015100
C      0.136800    0.043300    0.022300
O     -0.735300   -0.802300    0.768900
C      0.674400   -0.912100    1.008700
C      1.232600   -1.842600   -0.072300
C      0.691300   -0.823000   -1.148300
C     -0.272500   -1.295300   -2.128800
N     -1.040300   -1.665000   -2.910000
H      0.771900    2.055800   -0.351100
H     -0.952800    1.760500   -0.635600
H     -0.339600    1.862200    1.024800
H      1.019000   -0.760200    2.024700
H      2.321500   -1.912700   -0.091100
H      0.790700   -2.839600   -0.094800
H      1.516800   -0.321600   -1.660600
