14
gdb_1646
C      0.031700    1.531600    0.009300
C     -0.053000    0.008500    0.002800
C     -1.466800   -0.514700    0.013400
O     -2.455700    0.184600    0.026700
C     -1.610200   -2.057500    0.006400
N     -2.903300   -2.448000    0.016200
O     -0.639500   -2.790400   -0.006500
H      1.075000    1.857700    0.001400
H     -0.469100    1.956800   -0.864600
H     -0.453200    1.948400    0.896100
H      0.450400   -0.432700   -0.867300
H      0.466200   -0.440800    0.859300
H     -3.622200   -1.742500    0.026800
H     -3.135100   -3.426500    0.013300
