12
gdb_3755
C      0.006900    1.374600    0.091700
N      0.008700   -0.069500    0.024100
N     -0.164500   -0.728700   -1.109200
C     -0.097600   -2.015100   -0.755400
C      0.121400   -2.065800    0.629500
O      0.251800   -3.163300    1.396100
N      0.187000   -0.828700    1.112500
H      0.965400    1.736900    0.472900
H     -0.156100    1.745100   -0.919300
H     -0.793300    1.721600    0.750900
H     -0.203900   -2.811100   -1.472600
H      0.392900   -2.868400    2.304200
