10
gdb_2620
O     -0.064700   -0.075800    0.002300
C     -0.019400    1.131200    0.007400
C      1.208200    1.893600    0.000300
C      2.216300    2.554300   -0.005300
C      3.455100    3.323800   -0.012900
C      3.239500    4.776300   -0.003200
N      3.083500    5.919800    0.004300
H     -0.937000    1.751700    0.018000
H      4.067300    3.053000    0.857200
H      4.050700    3.062300   -0.897300
