13
gdb_5670
N     -0.046100    1.318500    0.010000
C      1.252500    1.834300    0.000400
C      2.163200    0.803000   -0.014500
C      1.406900   -0.413900   -0.013900
C      0.085100   -0.032500    0.001100
O     -0.790900   -1.049900    0.004000
C      0.026100   -2.179300   -0.010200
C      1.346700   -1.854900   -0.021500
H     -0.896200    1.852300    0.021300
H      1.403500    2.901400    0.005000
H      3.235200    0.922600   -0.024300
H     -0.507600   -3.114200   -0.010200
H      2.159600   -2.564400   -0.033400
