16
gdb_1473
C      0.040700    1.555100   -0.040300
C     -0.007900    0.026500    0.013500
C     -1.439800   -0.522300    0.017300
O     -2.182200   -0.105700   -1.114400
C     -1.438600   -2.063900    0.150000
C     -2.783000   -2.633100    0.189700
N     -3.843600   -3.088700    0.232800
H      1.072200    1.913800   -0.096500
H     -0.504200    1.928400   -0.911000
H     -0.419300    1.993600    0.851600
H      0.527300   -0.398200   -0.849000
H      0.515800   -0.337500    0.906200
H     -1.985000   -0.105600    0.872200
H     -1.723300   -0.406300   -1.907600
H     -0.893100   -2.505200   -0.694300
H     -0.903500   -2.360600    1.059300
