15
gdb_11203
N     -0.247200    1.023000    0.657400
C     -0.122400   -0.121900    0.145900
C     -1.151300   -0.821100   -0.718000
C     -0.689300   -2.294000   -0.735500
C      0.824500   -2.138200   -0.459300
O      0.973300   -0.930000    0.293900
C     -1.359100   -3.094600    0.363400
O     -2.003900   -4.093200    0.179700
H      0.591900    1.280200    1.179800
H     -2.158300   -0.666400   -0.326700
H     -1.125500   -0.399300   -1.727800
H     -0.882600   -2.797300   -1.684000
H      1.250800   -2.955200    0.129800
H      1.385100   -2.056700   -1.398000
H     -1.208700   -2.685300    1.389800
