24
gdb_12410
C     -0.043100    1.559000   -0.052200
C      0.063600    0.030700   -0.013100
C      0.668900   -0.530900   -1.312900
C      0.705400   -2.065600   -1.316000
C      1.433700   -2.612500   -0.080500
C      0.830100   -2.045000    1.213200
C      0.807400   -0.501700    1.241200
C      2.214600    0.088700    1.433900
H      0.932000    2.030300   -0.214600
H     -0.700500    1.881400   -0.867000
H     -0.453300    1.955300    0.883500
H     -0.961400   -0.365100    0.055400
H      0.090700   -0.166600   -2.171000
H      1.686600   -0.139000   -1.446000
H     -0.324900   -2.448700   -1.324200
H      1.179300   -2.432700   -2.233700
H      1.385600   -3.707400   -0.064800
H      2.499200   -2.354700   -0.140600
H     -0.200700   -2.413100    1.309300
H      1.376200   -2.424200    2.085400
H      0.215800   -0.198400    2.116400
H      2.876800   -0.115800    0.587000
H      2.180600    1.173400    1.569600
H      2.685400   -0.337900    2.326100
