14
gdb_5134
C     -0.016900   -1.250300    0.298500
C      0.007300   -0.061100    0.132400
C      0.036800    1.388200   -0.067100
C      1.417700    1.959000   -0.163400
C      2.100100    2.575100   -1.165300
C      3.389600    2.907400   -0.632500
C      3.387600    2.466100    0.650700
O      2.193800    1.887600    0.953400
H     -0.034100   -2.301600    0.445700
H     -0.497500    1.645900   -0.988400
H     -0.508800    1.875700    0.752500
H      1.733700    2.766300   -2.161800
H      4.200500    3.405500   -1.140100
H      4.112800    2.482700    1.447200
