14
gdb_21272
C     -0.024800    1.376900    0.030300
O      0.045500   -0.052500   -0.025100
C      0.634600   -0.546600   -1.110700
N      1.165000    0.113000   -2.119700
C      1.610100   -0.907800   -2.922200
N      2.190000   -0.647900   -4.149100
N      1.397600   -2.131700   -2.472500
N      0.749800   -1.872700   -1.280100
H      0.978200    1.812000    0.024600
H     -0.586000    1.767800   -0.822500
H     -0.536500    1.609900    0.964200
H      2.677000    0.236100   -4.174600
H      2.752700   -1.412800   -4.493300
H      0.435900   -2.620800   -0.688000
