16
gdb_534
C      0.051600    1.570900    0.095700
C      0.005700    0.042800    0.017200
C     -1.421400   -0.507600   -0.081100
C     -1.468500   -2.043000   -0.170600
C     -2.885800   -2.565600   -0.154100
O     -3.378400   -3.266800   -0.999700
H      1.081400    1.934600    0.163800
H     -0.404500    2.026900   -0.789900
H     -0.490800    1.939400    0.973400
H      0.584900   -0.299500   -0.849900
H      0.497100   -0.387700    0.899700
H     -2.001100   -0.175100    0.791000
H     -1.919300   -0.079100   -0.960500
H     -0.969900   -2.410600   -1.072300
H     -0.950600   -2.467900    0.702400
H     -3.480500   -2.237600    0.732400
