16
gdb_2446
C      0.112800    1.506300   -0.234600
C      1.613300    1.304400    0.078800
C      1.122600    0.101000    0.907000
N     -0.079400    0.021900   -0.009300
C      0.366500   -0.677400   -1.232100
C      1.528600    0.062700   -1.949900
O      2.330900    0.835600   -1.054500
H     -0.408600    2.067400    0.545400
H     -0.183500    1.887900   -1.214500
H      2.214000    2.099100    0.529200
H      1.760900   -0.786300    0.922900
H      0.800700    0.354900    1.921700
H      0.660100   -1.690900   -0.939700
H     -0.480100   -0.770200   -1.922400
H      2.201100   -0.641100   -2.449400
H      1.120200    0.725000   -2.726100
