14
gdb_20435
C      0.074800    1.378900   -0.172000
C      1.521400    1.818300    0.194900
N      2.065000    0.523200    0.532300
N      3.296900    0.094800    0.900400
C      3.065400   -1.161300    1.282200
C      1.698500   -1.546600    1.190900
C      1.104400   -0.403000    0.710600
O     -0.128300    0.067100    0.420400
H     -0.693300    2.046500    0.219700
H     -0.043600    1.284500   -1.256300
H      2.039100    2.281200   -0.648400
H      1.555500    2.502400    1.051000
H      3.893600   -1.773100    1.610600
H      1.245400   -2.492100    1.431100
