17
gdb_19595
O     -0.096600    1.497800    0.006600
C      0.044000    0.090700    0.042400
C     -1.329900   -0.606100   -0.115600
C     -1.204700   -0.243600   -1.643300
C      0.289100   -0.581600   -1.348500
N      0.185900   -2.064100   -1.167000
C      0.384200   -2.579100    0.203300
C     -0.960600   -2.091400   -0.202800
H      0.776300    1.875800   -0.140800
H      0.678000   -0.190800    0.886800
H     -2.185400   -0.318600    0.494400
H     -1.710200   -0.897300   -2.356600
H     -1.386900    0.808100   -1.851800
H      1.112100   -0.291000   -2.002900
H      0.539500   -3.654900    0.217500
H      0.993600   -2.049800    0.925300
H     -1.757200   -2.804100   -0.401900
