20
gdb_10231
C      0.169300    1.474500   -0.177000
C     -0.185700    0.015800   -0.411600
O      0.893000   -0.591200   -1.107000
C      0.839700   -2.002900   -1.255100
C     -0.485300   -2.521700   -1.842300
O     -0.874600   -1.864200   -3.027800
C      2.033400   -2.320000   -2.159400
O      1.922900   -1.630500   -3.403400
H      1.081500    1.560900    0.420300
H      0.332900    1.986400   -1.129800
H     -0.643000    1.982700    0.351000
H     -0.350000   -0.498700    0.549000
H     -1.108100   -0.064700   -1.001200
H      0.988700   -2.497800   -0.278300
H     -0.374600   -3.611000   -1.985100
H     -1.298800   -2.383800   -1.122200
H     -0.085200   -1.826200   -3.587000
H      2.965100   -2.043800   -1.646500
H      2.070000   -3.388900   -2.388700
H      1.805900   -0.702200   -3.160100
