17
gdb_15959
N     -0.363200   -0.800600   -0.897500
C     -0.239100    0.253000   -0.436300
C     -0.045000    1.572400    0.139100
C      0.055700    1.692900    1.697300
C      1.261700    2.659000    1.521700
C      1.367100    2.202200    0.061500
C      2.561500    1.562600   -0.580600
C      2.013900    2.869300   -1.111000
H     -0.805800    2.250300   -0.261600
H     -0.831900    2.076500    2.201900
H      0.344800    0.743900    2.151200
H      0.972500    3.710400    1.616100
H      2.130200    2.476400    2.158400
H      3.498600    1.582800   -0.033500
H      2.403200    0.665800   -1.170900
H      1.491900    2.852400   -2.062600
H      2.579100    3.777800   -0.927800
