14
gdb_12164
O      0.612900    0.795700    0.711000
C      0.252100   -0.291000   -0.072000
C     -1.261000   -0.767700   -0.199000
C     -1.009600   -1.046100   -1.724100
C      0.214000   -0.132700   -1.595500
O      0.754500    0.653500   -2.320500
C     -1.692100   -1.862200    0.639100
C     -2.024800   -2.786400    1.332600
H      0.606300    1.580300    0.149200
H      0.851900   -1.163000    0.217400
H     -1.913200    0.103400   -0.082600
H     -0.736900   -2.088500   -1.908600
H     -1.777700   -0.736900   -2.433600
H     -2.325600   -3.597000    1.949200
