20
gdb_13002
C     -0.026400    1.487300    0.034700
C     -0.023600   -0.009600   -0.007000
C      0.017400   -0.785400   -1.095800
C      0.003000   -2.261900   -0.766000
C      0.062000   -2.277800    0.759700
C      1.253100   -1.641500    1.434300
C     -0.023700   -0.840200    1.250100
C     -0.836400   -0.406600    2.447800
H      0.840200    1.871700    0.588100
H     -0.005300    1.914700   -0.971300
H     -0.916800    1.873300    0.546500
H      0.082200   -0.415500   -2.114000
H     -0.909000   -2.749600   -1.137900
H      0.844600   -2.799000   -1.223900
H     -0.451500   -3.068700    1.295300
H      1.485900   -1.985500    2.437900
H      2.118900   -1.376000    0.835300
H     -0.468000    0.537500    2.866200
H     -1.891900   -0.265200    2.187600
H     -0.787900   -1.156800    3.243300
