20
gdb_8087
C     -0.086200    1.540800    0.012800
C      0.077400    0.039100   -0.026300
C      0.715600   -0.635000   -1.267300
C     -0.401400   -1.669300   -1.023700
C     -0.009400   -2.728200    0.007300
C      0.907300   -2.087400    1.077500
C      0.600400   -0.582300    1.278700
O     -1.179700   -0.652500   -0.331200
H      0.885800    2.031700    0.129400
H     -0.550900    1.898800   -0.910200
H     -0.721200    1.839000    0.854100
H      0.539700   -0.050900   -2.172600
H      1.758800   -0.955200   -1.222200
H     -0.937400   -2.079700   -1.884200
H     -0.935000   -3.107700    0.453700
H      0.494600   -3.577400   -0.469300
H      0.833200   -2.625700    2.027000
H      1.949000   -2.192300    0.755800
H      1.496200   -0.058200    1.632800
H     -0.180500   -0.438800    2.034000
