14
gdb_5474
C     -0.011500    1.537000    0.072900
C      0.013400    0.040800    0.020400
C     -0.000800   -0.774800   -1.091000
O      0.032000   -2.089800   -0.708300
C      0.066700   -2.105100    0.634800
C      0.057600   -0.840700    1.143200
C     -0.042300   -0.478700   -2.511100
O     -0.050700   -1.300800   -3.401400
H      0.876400    1.923300    0.585400
H     -0.045100    1.984900   -0.921900
H     -0.884500    1.892500    0.631000
H      0.095600   -3.081000    1.093100
H      0.079400   -0.566100    2.186500
H     -0.066900    0.610900   -2.728000
