15
gdb_20765
C      0.005400    1.486600    0.010000
C      0.027600   -0.007500    0.032100
N      0.000400   -0.679000   -1.094800
O      0.034400   -2.049700   -0.709900
C      0.065500   -2.118100    0.620800
N      0.156700   -3.354100    1.205000
C      0.063600   -0.864000    1.173200
N      0.073500   -0.601400    2.569600
H      0.891200    1.899600    0.504900
H     -0.020200    1.847200   -1.019900
H     -0.872700    1.875900    0.537500
H     -0.293900   -4.101900    0.697100
H     -0.081100   -3.328900    2.187600
H      0.948600   -0.188900    2.878700
H     -0.668900    0.034400    2.842200
