17
gdb_10087
O      0.118000    1.370200   -0.325600
C      0.059400   -0.011200   -0.009000
C     -1.389100   -0.515400    0.073800
C     -2.116400    0.013300    1.320100
O     -2.153100    1.443400    1.360500
N     -2.078700   -0.105800   -1.145500
C     -3.156600   -0.764600   -1.641500
O     -3.702600   -1.703300   -1.097800
H     -0.416000    1.815600    0.349500
H      0.591700   -0.535500   -0.809300
H      0.573100   -0.236300    0.937800
H     -1.398200   -1.610500    0.125000
H     -3.127900   -0.406400    1.357500
H     -1.579700   -0.300700    2.220900
H     -2.777700    1.726400    0.683400
H     -1.654000    0.648500   -1.665400
H     -3.494800   -0.344000   -2.609400
