17
gdb_19457
N     -0.067700   -1.153200   -0.094200
C     -0.038700    0.002100   -0.042000
C     -0.016800    1.453100    0.008900
C     -0.073300    2.075200    1.451900
C      1.447000    1.759800    1.545400
C      1.415000    2.102600    0.028500
C      1.055800    3.599900    0.038200
C     -0.076500    3.579100    1.121100
H     -0.725400    1.850500   -0.724300
H     -0.789500    1.709600    2.186400
H      2.058200    2.390400    2.196500
H      1.650200    0.705400    1.737500
H      2.187400    1.764500   -0.660700
H      1.909100    4.217500    0.330400
H      0.703800    3.952800   -0.935000
H     -1.039700    3.920700    0.732600
H      0.165700    4.185400    1.997800
