22
gdb_12701
C      0.621400    1.658800   -0.080100
C      0.155100    0.199400    0.021000
C      0.604400   -0.653300   -1.189100
C      1.972300   -1.277700   -0.794200
C      2.146400   -1.034500    0.728400
O      3.077100    0.013200    1.007200
C      0.752100   -0.591600    1.214700
C      0.730900    0.091800    2.580900
H      1.710300    1.726600   -0.137700
H      0.194500    2.131500   -0.971400
H      0.298600    2.242500    0.787900
H     -0.939000    0.199400    0.095300
H     -0.125500   -1.449500   -1.370000
H      0.664200   -0.066200   -2.110200
H      2.004500   -2.345200   -1.032200
H      2.803900   -0.808700   -1.329600
H      2.468200   -1.948400    1.249100
H      3.936700   -0.261000    0.673800
H      0.163800   -1.518000    1.287900
H      1.365200    0.980100    2.593300
H     -0.288200    0.389300    2.850600
H      1.096200   -0.585000    3.360700
