19
gdb_20124
C     -0.510300    1.914800   -0.335800
C     -0.112000    0.453300   -0.123900
N     -1.308100   -0.362600    0.087300
C     -1.150500   -1.567300    0.895000
C     -1.859100   -0.375300    1.437200
C      0.619100   -0.083400   -1.338600
O      1.949800    0.397400   -1.531800
C      1.768900   -0.988700   -1.232500
H      0.376800    2.518800   -0.543500
H     -1.202800    2.002600   -1.178800
H     -1.005100    2.316900    0.553200
H      0.578000    0.392600    0.738600
H     -1.705900   -2.439000    0.561200
H     -0.165000   -1.784100    1.304300
H     -1.342500    0.198400    2.205600
H     -2.942900   -0.357800    1.508300
H      0.014600   -0.123100   -2.246100
H      2.119600   -1.301200   -0.249400
H      1.996000   -1.676800   -2.045500
