20
gdb_13218
C      0.027600    1.443400   -0.008400
O     -0.153300    0.055800   -0.165700
C      0.651700   -0.550200   -1.167900
C      2.106000   -0.716400   -0.713100
C      0.011300   -1.890400   -1.512300
C     -0.388500   -2.832700   -0.351400
O     -1.754600   -2.885400   -0.809600
C     -1.496900   -1.913600   -1.843200
H      1.022900    1.700700    0.382000
H     -0.119200    1.981800   -0.957900
H     -0.722900    1.784800    0.708800
H      0.631700    0.084000   -2.072500
H      2.157900   -1.349500    0.178400
H      2.703700   -1.181000   -1.503600
H      2.565700    0.246300   -0.473600
H      0.621000   -2.386200   -2.271900
H      0.079500   -3.824300   -0.342900
H     -0.309200   -2.381700    0.644500
H     -2.012300   -0.965500   -1.649900
H     -1.773900   -2.287100   -2.836500
