16
gdb_8119
C     -0.065500    1.520100    0.043700
C     -0.048100    0.017300    0.076500
C     -1.186600   -0.790900   -0.513700
C     -1.050800   -2.190500    0.111400
O     -1.653500   -3.169100   -0.237000
C     -0.038000   -2.133600    1.270700
C      0.624700   -0.787500    1.117800
O      1.222300   -0.612800   -0.175000
H      0.817700    1.924000    0.545000
H     -0.067800    1.885000   -0.989000
H     -0.960700    1.910700    0.539000
H     -2.165500   -0.373600   -0.245100
H     -1.147300   -0.858300   -1.604800
H     -0.576600   -2.220100    2.223000
H      0.658500   -2.974400    1.207800
H      1.158800   -0.327700    1.945900
