13
gdb_3631
O      0.000300    1.447200   -0.116600
C      1.347000    1.794400    0.035300
C      2.277900    0.721000   -0.497600
C      2.068200    0.879400    1.007500
C      1.151300   -0.359600    1.010500
C      0.063700    0.058300    0.038400
C      1.362100   -0.518800   -0.494300
H      1.552300    2.852800   -0.047400
H      3.146200    0.898200   -1.115900
H      2.741600    1.203600    1.787900
H      1.039800   -1.095800    1.793600
H     -0.888100   -0.448700   -0.041500
H      1.446600   -1.403000   -1.109700
