8
gdb_773
N      0.007900    1.368700    0.153800
C     -0.041100    0.011800    0.041300
N     -1.120500   -0.724800   -0.000200
O     -0.625600   -2.004600   -0.043600
N      0.742900   -1.963500   -0.034500
N      1.111200   -0.759100    0.016900
H      0.866200    1.791300   -0.164000
H     -0.830800    1.862000   -0.109600
