13
gdb_16104
N      0.028600   -1.164200   -0.123300
C      0.047500   -0.012600   -0.027000
C      0.041000    1.419800    0.126100
O      0.383900    2.186900   -1.052700
C      1.256900    2.270600    0.070000
C      1.017700    3.470200    0.977200
C     -0.400600    3.258600    1.467100
C     -0.929800    2.114500    1.029000
H      2.250900    1.859400   -0.079500
H      1.738100    3.490300    1.803900
H      1.131200    4.412700    0.428800
H     -0.917600    3.989900    2.077100
H     -1.918100    1.728500    1.237700
