16
gdb_16210
O      0.050900    0.004600    0.003200
C      0.002600    1.209100    0.007600
C     -1.238700    2.101900    0.094200
C     -0.628800    3.462300    0.451100
O      0.681100    3.458700   -0.134500
C      1.166300    2.146900   -0.051700
C      2.412500    1.828700    0.759600
C      2.443800    1.787600   -0.745100
H     -1.712500    2.123100   -0.894200
H     -1.963400    1.715200    0.812500
H     -1.167100    4.317700    0.039200
H     -0.557300    3.584100    1.542300
H      2.881300    2.673600    1.250800
H      2.424100    0.890000    1.302500
H      2.474100    0.819300   -1.233100
H      2.945800    2.596600   -1.263400
