16
gdb_19504
O      0.036900   -0.051500    0.355000
C      0.002800    1.114900    0.035300
C      1.213200    1.962400   -0.057700
C      1.483200    2.958200   -1.186700
C      0.346700    3.427000   -2.099400
C     -0.591400    4.147500   -1.153900
C     -0.112900    4.181300    0.092400
C      1.202000    3.480600    0.196700
H     -0.959400    1.612800   -0.199100
H      2.099700    1.443100    0.293200
H      2.490200    2.936000   -1.585100
H      0.730400    4.102800   -2.875100
H     -0.147000    2.604200   -2.631000
H     -1.545000    4.551600   -1.473700
H     -0.603300    4.635800    0.945100
H      1.973600    3.863900    0.855200
