16
gdb_16323
O      0.007800    1.499800    0.240300
C      0.069200    0.107600   -0.021300
C     -1.310400   -0.496500    0.006200
C     -1.975600   -1.137300    1.216300
C     -1.896400   -1.941100   -0.033600
C     -3.021200   -1.504500   -0.990600
C     -2.361900   -0.102400   -0.977900
O     -2.477200    0.878100   -1.666900
H     -0.579300    1.877700   -0.426900
H      0.539800   -0.091600   -0.997300
H      0.710300   -0.333700    0.748800
H     -1.271900   -1.390800    2.003400
H     -2.935300   -0.777900    1.578700
H     -1.331200   -2.860100   -0.115000
H     -2.964300   -1.937700   -1.993300
H     -4.045400   -1.595400   -0.617100
