14
gdb_15032
O     -0.223400    0.165000    0.285900
C     -0.045200    1.295900   -0.066700
C      1.357600    1.938400   -0.095400
C      1.499300    2.791700   -1.271700
N      1.570300    3.488600   -2.191300
C      1.557100    2.718400    1.213900
C      2.516100    3.843800    1.314000
N      1.064100    4.087400    1.386100
H     -0.876100    1.972900   -0.352800
H      2.082800    1.118500   -0.139000
H      1.402900    2.079800    2.080400
H      3.056900    4.001700    2.242000
H      3.045800    4.144100    0.414300
H      0.741900    4.469400    0.498500
