16
gdb_8021
C     -0.282200    1.596600    0.016200
C      0.063900    0.128700    0.041300
C     -1.051800   -0.928400    0.232100
O     -0.297600   -1.615700    1.253900
C      0.787300   -0.666700    1.177000
C      1.806800   -1.080600    0.115600
N      2.804800   -1.853100    0.147200
N      1.157300   -0.296100   -0.850000
H      0.620600    2.207900    0.096800
H     -0.785900    1.861800   -0.921200
H     -0.956200    1.852400    0.839200
H     -1.990400   -0.530100    0.637500
H     -1.268600   -1.562500   -0.636000
H      1.111700   -0.292000    2.148000
H      3.223900   -1.971800   -0.777600
H      1.068200   -0.520100   -1.833500
