8
gdb_7
C     -0.018700    1.525600    0.010400
C      0.002100   -0.003900    0.002000
H      0.994900    1.939700    0.002900
H     -0.542100    1.923600   -0.865100
H     -0.525200    1.914200    0.900000
H      0.525500   -0.401900    0.877500
H     -1.011500   -0.418000    0.009500
H      0.508600   -0.392500   -0.887600
