13
gdb_20529
C     -0.002100    1.521800    0.008500
C      0.084700    0.015300    0.001500
O      1.110500   -0.612200   -0.009200
N     -1.160300   -0.669400    0.008700
C     -2.456200   -0.189000    0.021100
N     -3.313500   -1.164200    0.024100
N     -2.586500   -2.355500    0.013200
C     -1.326500   -2.041400    0.004400
H      1.010400    1.923300    0.001700
H     -0.545300    1.884000   -0.870000
H     -0.530500    1.876600    0.898900
H     -2.699900    0.861000    0.027400
H     -0.487900   -2.717600   -0.005200
