20
gdb_14524
C      0.016200    1.533900    0.167700
C      0.021000    0.019800    0.045600
C      1.088700   -0.600200   -0.829500
C      1.182400   -0.721000    0.672400
C     -1.321400   -0.683200    0.072800
C     -2.322200   -0.340700    1.205500
O     -3.296000    0.150900    0.263500
C     -2.451100   -0.174100   -0.858100
H      1.038100    1.923400    0.135300
H     -0.539900    2.007900   -0.648100
H     -0.430300    1.866500    1.110800
H      0.837900   -1.489600   -1.398200
H      1.783100    0.063900   -1.333400
H      1.940100   -0.138700    1.185900
H      0.994700   -1.692100    1.118700
H     -1.156200   -1.759500   -0.024400
H     -2.698900   -1.200500    1.774100
H     -2.005800    0.435000    1.913500
H     -2.217000    0.707900   -1.466700
H     -2.903900   -0.935700   -1.505900
