20
gdb_12285
C      0.324100    1.397900    0.172900
C      0.058900   -0.103700    0.026100
C      0.528600   -0.633600   -1.318500
O      1.963200   -0.522100   -1.495200
C      2.106100   -1.932300   -1.794400
C      3.111000   -2.627200   -0.897300
C      0.588800   -2.170100   -1.546400
O      0.196300   -3.028300   -0.506300
H      1.388900    1.610600    0.042600
H     -0.227500    1.970600   -0.580600
H      0.019200    1.759600    1.159200
H      0.572300   -0.641500    0.833700
H     -1.011200   -0.320700    0.131300
H      0.001800   -0.103600   -2.126100
H      2.388700   -2.072800   -2.847200
H      2.856800   -2.516300    0.161800
H      3.161900   -3.695000   -1.131700
H      4.103700   -2.191600   -1.045200
H      0.041600   -2.514600   -2.425800
H      0.637300   -2.757800    0.305200
