16
gdb_9699
N      0.109200    1.578400   -0.208900
C     -0.040000    0.142500    0.053100
C      0.523600   -0.230600    1.464300
C     -0.531200   -1.137200    2.044200
C     -1.643100   -1.154800    1.314200
C     -1.550200   -0.263500    0.102600
C      0.648100   -0.671300   -0.975300
N      1.200700   -1.261800   -1.802600
H      1.096000    1.823300   -0.237600
H     -0.261900    1.801700   -1.129200
H      1.511200   -0.698700    1.403400
H      0.633300    0.689500    2.052100
H     -0.378700   -1.678000    2.970900
H     -2.541900   -1.712400    1.550600
H     -2.153500    0.645200    0.222300
H     -1.876300   -0.752500   -0.820800
