17
gdb_13682
C      0.291700    1.365000   -0.335200
C      0.191300   -0.065300    0.141700
N      1.432700   -0.732000    0.565900
C      0.361500   -0.514200    1.552600
C      0.705300    0.403600    2.696400
O      1.438300   -0.311000    3.703400
C      2.782900   -0.330500    3.586400
O      3.478900   -0.961200    4.324200
H      1.047700    1.923600    0.220200
H      0.575700    1.389800   -1.392400
H     -0.669800    1.879600   -0.233800
H     -0.509100   -0.669300   -0.434800
H      1.455300   -1.701500    0.263600
H     -0.222800   -1.380400    1.858600
H      1.287800    1.262100    2.348100
H     -0.195500    0.771500    3.194600
H      3.151700    0.298200    2.755500
