15
gdb_11261
C      0.095100    1.514800    0.118900
C     -0.045900   -0.000100   -0.037800
C      0.782900   -0.581800   -1.222600
N      2.007700   -1.154300   -0.636600
C      1.792400   -1.187300    0.624100
N      0.561100   -0.743400    1.086300
C      2.747100   -1.700700    1.570600
N      3.491300   -2.089600    2.364300
H      1.149600    1.804800    0.173000
H     -0.356400    2.027000   -0.736900
H     -0.408900    1.871000    1.023700
H     -1.102800   -0.268200   -0.122700
H      0.239300   -1.381600   -1.740000
H      1.038300    0.176800   -1.968900
H      0.517900   -0.339000    2.012000
