17
gdb_14280
C     -0.414300    1.389300    0.224800
C     -0.029700   -0.060100    0.022800
C      0.616200   -0.594600   -1.208000
C      1.236300    0.366600   -2.196900
C      2.308300    1.120800   -1.392200
O      2.954700    2.060000   -1.771900
C      2.404800    0.449700   -0.011900
N      1.356900   -0.565400    0.092200
H      0.188700    2.095500   -0.350400
H     -1.458500    1.534900   -0.071000
H     -0.331000    1.665700    1.281700
H     -0.709700   -0.744300    0.528500
H      0.343600   -1.584300   -1.563100
H      1.727400   -0.164900   -3.019900
H      0.541000    1.080000   -2.648800
H      3.385200   -0.034600    0.076400
H      2.347600    1.202700    0.780600
