15
gdb_10140
C     -0.006500    1.493700    0.045600
C     -0.117200   -0.017400    0.121500
O      0.836800   -0.477300    1.080400
C      0.870400   -1.877100    1.222700
C      2.039700   -2.260000    2.012100
C      3.002800   -2.597100    2.641900
C     -0.375000   -2.392700    1.855600
N     -1.362900   -2.773400    2.317100
H      1.001400    1.792400   -0.255000
H     -0.719500    1.884600   -0.685900
H     -0.224900    1.943000    1.018000
H     -1.129300   -0.322600    0.422900
H      0.094300   -0.479300   -0.856200
H      0.937500   -2.360400    0.231700
H      3.854100   -2.888800    3.206900
