20
gdb_16150
C     -0.294900    1.492200   -0.067200
C      0.140400    0.025400    0.049100
C      0.840600   -0.492400   -1.189200
C      0.013600   -1.007900   -2.341500
C      0.876300   -1.973700   -1.546200
C      2.232300   -2.220200   -2.113700
C      2.961400   -1.102300   -2.149100
C      2.224300    0.074100   -1.543700
H      0.565100    2.150800   -0.228400
H     -0.981100    1.631600   -0.909200
H     -0.803300    1.827200    0.842300
H      0.804700   -0.090100    0.916300
H     -0.738600   -0.598700    0.253100
H     -1.060600   -1.055700   -2.187500
H      0.315100   -0.786200   -3.360700
H      0.389100   -2.725200   -0.933200
H      2.548900   -3.190200   -2.480500
H      3.956600   -1.012200   -2.569700
H      2.164800    0.924700   -2.234900
H      2.739300    0.446800   -0.645800
