17
gdb_15148
O      0.399900    0.297600   -0.668700
C      0.557100    1.480900   -0.663400
O      0.720200    2.183700    0.477200
C      1.014100    3.576800    0.359200
C      2.518000    3.819400    0.304600
N      3.067100    3.314400   -0.944500
C      3.226800    4.275100   -2.033900
C      4.410500    3.751000   -1.297300
H      0.561000    2.119400   -1.565200
H      0.525300    3.995300   -0.530500
H      0.582000    4.052100    1.243300
H      2.710800    4.897900    0.452300
H      2.990100    3.280800    1.133800
H      2.989200    3.909400   -3.028500
H      2.944600    5.310700   -1.847700
H      4.916900    4.438000   -0.621000
H      5.050900    2.996400   -1.744200
