20
gdb_14052
C     -0.112500    1.436000   -0.129300
O      1.150300    1.689600    0.514900
C      1.473300    0.284600    0.528700
C      0.085100   -0.100500   -0.025700
C     -0.886300   -0.812500    0.923600
C     -2.074200   -1.155400    0.012900
C     -1.413800   -1.591600   -1.318400
C     -0.006400   -0.924500   -1.324100
H     -0.954900    1.858900    0.434000
H     -0.134900    1.833000   -1.154000
H      2.318500    0.052400   -0.134500
H      1.706000   -0.075100    1.539500
H     -0.419400   -1.733100    1.299700
H     -1.156000   -0.204500    1.792700
H     -2.734100   -1.919600    0.432400
H     -2.684800   -0.257900   -0.144500
H     -1.317500   -2.680800   -1.359200
H     -2.014200   -1.299500   -2.184000
H      0.163000   -0.303000   -2.208400
H      0.778400   -1.689300   -1.326900
