18
gdb_17194
C      0.063600    1.472900   -0.306700
N      0.035400    0.037000   -0.032800
C     -1.042200   -0.502600    0.893900
C     -0.118000   -1.741900    1.067500
C      0.780600   -0.480600    1.189600
C     -0.311500    0.108400    2.109000
C     -0.490200    1.293400    2.957700
N     -0.487300   -0.078500    3.536900
H      1.029000    1.715800   -0.763300
H     -0.713700    1.698300   -1.044800
H     -0.082500    2.132900    0.558600
H     -2.101700   -0.470800    0.630800
H     -0.250000   -2.339700    1.969400
H      0.034500   -2.329400    0.162200
H      1.866200   -0.422000    1.275800
H      0.359800    1.906600    3.245800
H     -1.433500    1.832400    2.903800
H     -1.438900   -0.369600    3.749800
