20
gdb_14511
C     -0.123200    1.564400   -0.041500
C     -0.017600    0.034200   -0.042700
C     -1.403700   -0.509300   -0.421900
O     -2.384800   -0.227000    0.573300
C      1.246600   -0.658500   -0.682600
C      2.087900   -0.124300    0.513900
C      0.767500   -0.672200    1.135400
C      0.974900   -1.907900    0.211100
H     -0.206700    1.939500   -1.068600
H     -1.035000    1.854600    0.487800
H      0.714700    2.077100    0.430800
H     -1.752000    0.008400   -1.322900
H     -1.394600   -1.578600   -0.658300
H     -2.125900   -0.695900    1.373100
H      1.529600   -0.653000   -1.737500
H      2.989200   -0.696100    0.749000
H      2.287100    0.944000    0.569500
H      0.501100   -0.679800    2.195500
H      0.119700   -2.542100   -0.015700
H      1.851500   -2.520100    0.437100
