20
gdb_18479
C      0.170300    1.103000   -0.232800
O     -0.441500    0.025000    0.445500
C      0.428300   -0.623300    1.323100
C      0.094600   -1.962700    1.863400
C     -0.568200   -2.836500    0.790300
C      0.719600   -2.720200   -0.091900
C      0.600100   -2.294500   -1.551100
C      1.335600   -1.762700    0.944100
H      1.010300    0.768600   -0.858200
H     -0.591300    1.558600   -0.870100
H      0.543500    1.861800    0.472100
H      0.879000    0.052700    2.054400
H      0.053900   -2.152100    2.929900
H     -0.766700   -3.857200    1.122400
H     -1.480900   -2.417600    0.358800
H      1.260600   -3.671000   -0.040300
H     -0.016500   -1.398900   -1.652700
H      1.585900   -2.085300   -1.982500
H      0.141300   -3.089500   -2.150300
H      2.387200   -1.748500    1.212500
