20
gdb_9686
C      0.642100    1.409400    0.158600
C     -0.164900    0.129800   -0.095200
C      0.284800   -0.573800   -1.353500
O      1.552500   -1.252000   -1.313300
C      0.356200   -2.033200   -1.543800
C      0.000600   -3.033800   -0.467700
C      0.320200   -2.581100   -2.960900
O      1.322100   -3.566400   -3.148700
H      1.704800    1.175600    0.271100
H      0.540100    2.115000   -0.673100
H      0.304300    1.913600    1.068700
H     -0.075000   -0.540400    0.764000
H     -1.230300    0.373300   -0.200400
H      0.153900    0.027700   -2.258000
H     -1.071900   -3.256500   -0.487100
H      0.541400   -3.966400   -0.653000
H      0.266300   -2.670900    0.525800
H     -0.638000   -3.073100   -3.160700
H      0.434600   -1.754300   -3.677300
H      2.158700   -3.142400   -2.922700
