8
gdb_33
O     -0.020100    1.457400    0.010100
C      0.001700    0.035800    0.002200
C     -1.363700   -0.474800    0.012600
C     -2.479000   -0.919700    0.020800
H      0.894500    1.757400    0.003300
H      0.519800   -0.351800   -0.889800
H      0.536700   -0.361300    0.880000
H     -3.467700   -1.307400    0.028200
