17
gdb_12547
O     -0.127700    1.458800   -0.034400
C     -0.003900    0.043400    0.025300
C     -1.412100   -0.526300   -0.067500
C     -1.467900   -2.007400    0.267200
O     -0.898300   -2.898700   -0.697400
C      0.407200   -2.818100   -1.074700
N      1.209800   -1.858600   -1.223900
C      0.904300   -0.447600   -1.111600
H      0.756100    1.839300    0.003000
H      0.435500   -0.264300    0.990200
H     -2.047300    0.004800    0.650600
H     -1.827200   -0.343700   -1.065700
H     -0.979900   -2.189500    1.235300
H     -2.505900   -2.337900    0.348000
H      0.748500   -3.823900   -1.325900
H      0.451700   -0.114900   -2.057300
H      1.862600    0.083600   -1.032400
