12
gdb_3418
N     -0.101300    1.244200    0.269000
C     -0.033600    0.017100   -0.013700
O      1.115700   -0.678300   -0.283400
C      0.827200   -1.977500   -0.831800
C     -0.659500   -2.181100   -0.635200
O     -1.035200   -2.063800    0.732800
C     -1.193600   -0.914500   -0.122100
H      0.825900    1.672900    0.246600
H      1.095000   -1.988600   -1.895000
H      1.431300   -2.716700   -0.297800
H     -1.222800   -2.879300   -1.246500
H     -2.199000   -0.538400   -0.263800
