18
gdb_15272
C      0.161300    1.038000    0.212100
O     -0.194800   -0.075700   -0.589600
C     -1.428300   -0.635400   -0.262900
C     -1.566500   -2.064200   -0.686600
O     -0.448500   -2.687900   -1.261000
C     -1.514200   -1.733600    0.794700
C     -0.288000   -2.196600    1.563000
O     -0.141900   -3.606100    1.536700
H      1.130500    1.393000   -0.144400
H     -0.576000    1.847000    0.112800
H      0.241300    0.762700    1.271800
H     -2.272700    0.045100   -0.375500
H     -2.500100   -2.403300   -1.125400
H      0.185700   -1.987400   -1.464700
H     -2.458000   -1.802700    1.328200
H      0.608700   -1.699900    1.168400
H     -0.378100   -1.915200    2.617000
H     -0.042000   -3.833700    0.603500
