16
gdb_20801
C     -0.319800    1.632500    0.086200
C      0.145600    0.174700   -0.052200
C      0.888800   -0.318500    1.150500
C      2.154900   -0.863800    1.247300
N      3.131700   -1.211000    0.311400
N      2.300000   -1.121900    2.570900
N      1.199700   -0.752300    3.271500
N      0.353600   -0.280300    2.408800
H      0.534000    2.309600    0.190200
H     -0.899300    1.942600   -0.788800
H     -0.944800    1.745200    0.975400
H     -0.726600   -0.466000   -0.233800
H      0.783800    0.072500   -0.939600
H      2.826900   -1.009300   -0.632100
H      4.023000   -0.754100    0.471500
H      3.071200   -1.564100    3.044100
