18
gdb_12009
C      0.126300    1.506800   -0.014800
C     -0.021000   -0.011900    0.032300
C     -1.489400   -0.454800    0.014200
O      0.670300   -0.533700   -1.122900
C      1.336000   -1.750000   -0.811300
C      1.543300   -1.727700    0.685900
O      2.125100   -0.502300    1.147600
C      0.704000   -0.651600    1.210300
H      1.182500    1.776100    0.049100
H     -0.278800    1.893300   -0.954300
H     -0.413000    1.977800    0.813100
H     -1.974300   -0.092200   -0.896200
H     -1.573400   -1.546100    0.034000
H     -2.033600   -0.055700    0.876800
H      0.736600   -2.633500   -1.086500
H      2.271700   -1.778200   -1.380400
H      1.802500   -2.626900    1.238000
H      0.259800   -0.652000    2.202400
