15
gdb_9564
C     -0.051900    1.550400   -0.093300
C     -0.018500    0.038900    0.007800
N      1.305500   -0.582700   -0.202500
C      0.709400   -0.645100    1.148600
C      1.344500    0.093900    2.203100
C      1.850000    0.700400    3.109800
C     -1.174000   -0.651700   -0.508400
C     -2.132500   -1.219800   -0.962100
H      0.857600    1.972700    0.336500
H     -0.121300    1.854200   -1.141700
H     -0.918100    1.951300    0.440700
H      1.194900   -1.486200   -0.657500
H      0.282000   -1.596200    1.456400
H      2.304700    1.236700    3.905700
H     -2.981300   -1.720800   -1.357600
