24
gdb_15712
C     -0.144300    1.746400   -0.277300
C     -0.228700    0.219500   -0.169100
C      0.704000   -0.514400   -1.137600
C      2.216200   -0.305000   -0.875200
C      2.930800   -1.545900   -1.481500
C      1.799100   -2.465700   -2.005700
C      0.544500   -2.055800   -1.207700
C      0.482700   -2.746300    0.162500
H      0.861300    2.109200   -0.040900
H     -0.387900    2.085000   -1.290900
H     -0.842200    2.232300    0.411900
H      0.000900   -0.080600    0.861000
H     -1.263500   -0.097200   -0.356800
H      0.488500   -0.139000   -2.149300
H      2.577400    0.632000   -1.307600
H      2.404600   -0.239800    0.202800
H      3.624800   -1.272100   -2.281000
H      3.526400   -2.057100   -0.719300
H      1.628200   -2.275500   -3.071500
H      2.037500   -3.529300   -1.906000
H     -0.367800   -2.314700   -1.758700
H      1.361900   -2.521300    0.776400
H     -0.402200   -2.443400    0.730200
H      0.439900   -3.833600    0.039200
