16
gdb_12448
O      0.009300   -0.010100   -0.549500
C     -0.029700    1.086200   -0.060500
C     -1.352900    1.831800    0.116700
C     -1.639200    2.459200    1.460400
C     -0.874400    3.410400    1.987400
C      0.388200    3.870500    1.303400
C      1.412300    2.744800    1.162000
O      1.146000    1.711400    0.200100
H     -1.364300    2.613100   -0.658700
H     -2.122700    1.108900   -0.152600
H     -2.530300    2.118100    1.978200
H     -1.132500    3.853700    2.944500
H      0.170900    4.290700    0.311200
H      0.869400    4.668300    1.878400
H      2.372400    3.153600    0.833800
H      1.564300    2.264800    2.136500
