11
gdb_183
O     -0.129400    1.348500    0.088000
N      0.039700   -0.046200    0.064300
C     -1.073000   -0.632800   -0.031000
C     -2.537800   -0.284900   -0.127400
O     -2.856000   -1.696100   -0.186500
C     -1.463500   -2.087800   -0.096500
H      0.777800    1.664900    0.161500
H     -2.968300    0.212400    0.751200
H     -2.840000    0.258300   -1.031900
H     -1.125100   -2.637800   -0.983700
H     -1.253400   -2.683800    0.800600
