15
gdb_1435
C      0.141800    1.531100    0.014800
C     -0.055100    0.018900   -0.054500
C     -1.516300   -0.404900    0.025200
O     -2.424100    0.386200    0.044300
C     -1.743100   -1.929200    0.085600
C     -3.134400   -2.339900    0.021200
C     -4.282700   -2.685500   -0.034300
H      1.201800    1.786300   -0.068000
H     -0.401200    2.030200   -0.791200
H     -0.237800    1.931500    0.958400
H      0.355100   -0.389400   -0.989200
H      0.496800   -0.494500    0.744700
H     -1.161400   -2.394500   -0.721800
H     -1.277900   -2.288500    1.014800
H     -5.300800   -2.982600   -0.083600
