14
gdb_10892
C     -0.090100    1.504800    0.072400
C      0.165300    0.038000   -0.030200
O     -0.747100   -0.877200    0.591800
C      0.653200   -0.941000    0.980200
C      1.281700   -1.786100   -0.119000
O      1.990600   -2.745600   -0.147100
C      0.741200   -0.778100   -1.210600
O     -0.148100   -1.203700   -2.196600
H      0.820500    2.069800   -0.148800
H     -0.857600    1.807200   -0.647600
H     -0.436000    1.766900    1.075400
H      0.885400   -0.817700    2.031000
H      1.587000   -0.292500   -1.710100
H     -0.896600   -1.605600   -1.737400
