15
gdb_5769
C      0.019100    1.561200   -0.002900
N      1.234900    0.740300   -0.034500
C     -0.068800    0.067700    0.044800
C     -0.333800   -0.670900    1.293200
C      0.441000   -0.945900    2.391900
N     -0.266900   -1.669300    3.325500
C     -1.458700   -1.835200    2.804000
N     -1.556600   -1.251500    1.573400
H     -0.121100    2.125600    0.914100
H     -0.303000    2.064200   -0.911500
H      1.600400    0.681500   -0.980400
H     -0.442000   -0.406500   -0.863500
H      1.469300   -0.661200    2.547300
H     -2.284800   -2.363900    3.256200
H     -2.372000   -1.231300    0.983800
