22
gdb_5987
C     -0.232900    1.503900   -0.047200
C      0.072200    0.004100    0.001700
C      0.838400   -0.469600    1.259000
C      2.201400    0.218600    1.383200
O      0.118900   -0.084200    2.441400
C      0.972800   -2.006100    1.205700
C      1.647900   -2.642300    2.415900
O      1.478700   -4.050600    2.299200
H      0.671800    2.101700   -0.191900
H     -0.910800    1.732300   -0.875200
H     -0.704500    1.830100    0.883800
H     -0.872600   -0.556500   -0.039600
H      0.636100   -0.296600   -0.890200
H      2.082000    1.303500    1.421800
H      2.708100   -0.088500    2.301000
H      2.840700   -0.032700    0.531600
H     -0.751300   -0.496800    2.400300
H     -0.031500   -2.443600    1.124300
H      1.508500   -2.300600    0.295700
H      2.715800   -2.379200    2.444800
H      1.186100   -2.254100    3.334700
H      1.899600   -4.464000    3.058400
