17
gdb_4022
C     -0.003800    1.519600   -0.079400
C      0.019500   -0.014300    0.036700
C      0.732000   -0.470300    1.321700
C     -1.393200   -0.575400   -0.018300
N     -1.867000   -1.377900   -0.907800
O     -0.927700   -1.715900   -1.880100
C     -2.312100   -0.193100    1.006900
C     -3.036700    0.167000    1.898700
H      1.017400    1.913100   -0.059500
H     -0.474000    1.840700   -1.013600
H     -0.557500    1.968400    0.751100
H      0.554700   -0.421400   -0.822600
H      0.209400   -0.105900    2.211500
H      0.784100   -1.561400    1.381700
H      1.754100   -0.079000    1.343200
H     -1.433600   -2.305000   -2.450100
H     -3.692500    0.472100    2.676400
