14
gdb_5025
N      0.010000    1.391300    0.143900
C     -0.058800    0.016200    0.052600
C     -1.207200   -0.716000    0.031100
N     -1.161100   -2.094900   -0.007600
C      0.016600   -2.766100   -0.022100
C      1.204000   -2.098200   -0.008300
C      1.260200   -0.656400    0.019100
O      2.294300    0.019700    0.005000
H      0.952600    1.705100   -0.064100
H     -0.722100    1.927200   -0.294800
H     -2.197300   -0.278000    0.048400
H     -2.025700   -2.607700   -0.020500
H     -0.055600   -3.846700   -0.048700
H      2.137700   -2.645500   -0.032400
