20
gdb_16066
C      0.051100    1.538600   -0.162400
C      0.006700    0.027500    0.105800
C     -1.395600   -0.520200    0.112000
C     -2.432000   -0.244000    1.216800
C     -2.944300   -1.712600    1.104200
C     -1.922000   -1.977800   -0.005800
C     -2.097700   -0.984100   -1.120900
O     -3.340400   -0.439500   -1.472200
H      1.079600    1.912700   -0.148300
H     -0.384200    1.776400   -1.138400
H     -0.515400    2.090400    0.595100
H      0.600600   -0.498900   -0.652100
H      0.485200   -0.186700    1.071100
H     -1.960000   -0.042600    2.181900
H     -3.157600    0.543400    1.000900
H     -2.748400   -2.293800    2.007500
H     -3.994700   -1.839500    0.825600
H     -1.370000   -2.900900   -0.150500
H     -1.429100   -1.149500   -1.968000
H     -3.868100   -1.138500   -1.872700
