20
gdb_6833
C     -0.280300    1.570400   -0.077400
C     -0.072400    0.063200    0.046500
C     -1.304900   -0.701100   -0.440000
C      1.249100   -0.505200   -0.531800
O      1.563900   -1.173600    0.708900
C      0.468200   -0.507600    1.393700
C      1.034800    0.418900    2.459000
O      1.811000   -0.331800    3.374200
H      0.596800    2.140700    0.239700
H     -0.488900    1.838500   -1.119300
H     -1.135200    1.903600    0.521400
H     -1.530400   -0.456400   -1.484200
H     -1.152000   -1.782800   -0.371400
H     -2.185300   -0.446100    0.160500
H      1.153700   -1.213100   -1.363400
H      2.001600    0.251400   -0.791700
H     -0.184900   -1.246000    1.876900
H      1.634500    1.216500    1.994000
H      0.228800    0.893200    3.030000
H      2.422000   -0.846900    2.832000
