18
gdb_13076
C     -0.114300    1.598200   -0.178100
C      0.007200    0.080400   -0.043800
C      1.169500   -0.542300   -0.867300
C      1.950300   -0.638700    0.465600
N      0.676100   -0.440200    1.180400
C      0.646100    0.304800    2.418100
C      1.274800   -0.458100    3.505000
N      1.788100   -1.046000    4.356500
H      0.854600    2.098300   -0.073700
H     -0.512700    1.847500   -1.167100
H     -0.798800    2.019300    0.566100
H     -0.978300   -0.376300   -0.195400
H      0.922300   -1.517300   -1.289100
H      1.600500    0.092000   -1.643200
H      2.457800   -1.579500    0.698000
H      2.667500    0.187000    0.601000
H      1.151700    1.287800    2.370200
H     -0.397000    0.496800    2.696900
