15
gdb_11726
O     -0.022700    1.400600   -0.176500
C      0.022500    0.014500   -0.016900
C      0.380900   -0.577800    1.401600
C     -0.978200   -1.265400    1.415600
N     -1.998300   -0.194200    1.242300
C     -1.336400   -0.711700    0.049000
C     -1.344000   -2.599900    1.898600
O     -0.592900   -3.354500    2.467600
H     -0.688700    1.722500    0.445100
H      0.669800   -0.382900   -0.800600
H      1.212600   -1.283000    1.375200
H      0.538500    0.159500    2.191200
H     -2.929100   -0.607200    1.306500
H     -1.901000   -1.177400   -0.750700
H     -2.400500   -2.884900    1.673300
