12
gdb_21643
N     -0.078400    1.380600    0.153100
C      0.048300    0.002600    0.045600
N     -1.032300   -0.782500    0.017300
N     -0.546800   -2.036400   -0.007300
C      0.812300   -2.072000   -0.011000
C      1.241800   -0.754800    0.026400
C      1.536400   -3.286500   -0.042700
N      2.115200   -4.289500   -0.070400
H      0.625300    1.900200   -0.351800
H     -1.009100    1.700300   -0.080000
H     -1.180700   -2.817100   -0.031400
H      2.261300   -0.408400    0.048000
