12
gdb_21881
O      0.110600    1.306000    0.067300
C      0.070000   -0.032900    0.064000
N      0.087700   -0.732200   -1.050200
N      0.033200   -2.031800   -0.622400
C      0.030900   -3.116600   -1.500100
O      0.075300   -3.041600   -2.694400
C     -0.017500   -2.116600    0.750000
C      0.004200   -0.844000    1.237500
H      0.151700    1.596300   -0.854200
H     -0.017600   -4.063900   -0.930500
H     -0.064000   -3.073700    1.245600
H     -0.021900   -0.518400    2.263500
