13
gdb_21930
O     -0.135300    1.387500   -0.096800
C     -0.016400   -0.018800    0.041200
C     -1.400400   -0.581600    0.047500
N     -1.741700   -1.861100    0.084100
C     -3.101800   -1.795500    0.079700
O     -3.872200   -2.891100    0.110900
N     -3.628300   -0.585100    0.042000
N     -2.499400    0.183500    0.023900
H      0.739400    1.778200   -0.025500
H      0.551700   -0.470500   -0.785400
H      0.491200   -0.299000    0.976400
H     -3.272700   -3.646300    0.132600
H     -2.550700    1.187500   -0.014800
