11
gdb_8993
O     -0.237200    0.219000    0.474900
C      0.053800    1.120400   -0.261300
C      1.357700    1.888500   -0.121800
O      1.380200    2.888400   -1.155800
C      2.466000    3.666100   -1.185000
O      3.405800    3.608700   -0.442900
C      2.358200    4.634500   -2.280700
N      2.323200    5.417500   -3.128500
H     -0.598800    1.460500   -1.093000
H      1.421000    2.359500    0.864400
H      2.213000    1.213300   -0.226700
