14
gdb_1219
C     -0.141800    1.446800   -0.075000
C     -0.062000   -0.046500    0.103100
N     -0.128900   -0.733100    1.167400
O      0.104400   -0.648900   -1.097300
C      0.197100   -2.069100   -1.090100
C      0.376300   -2.517500   -2.526700
O      0.486300   -3.671000   -2.846300
H      0.771100    1.819000   -0.549900
H     -0.976800    1.703600   -0.733800
H     -0.275700    1.947500    0.884800
H     -0.254100   -0.131500    1.977900
H      1.041800   -2.405900   -0.477700
H     -0.704500   -2.520800   -0.660200
H      0.397600   -1.686500   -3.266000
