14
gdb_5508
C      0.002000    1.443100    0.033000
N      0.014900   -0.007400   -0.000100
C      0.036300   -0.794700   -1.121600
C      0.046600   -2.093200   -0.672100
N      0.032000   -2.131600    0.692000
C      0.012800   -0.863800    1.079300
C     -0.007600   -0.400200    2.414800
C     -0.024900    0.010800    3.546800
H      0.906200    1.848500   -0.431000
H     -0.873800    1.832100   -0.494600
H     -0.037800    1.766600    1.073400
H      0.042100   -0.365800   -2.110400
H      0.063200   -2.998000   -1.260500
H     -0.039800    0.354800    4.551200
