13
gdb_6635
N     -0.054500    1.375900    0.045000
C      0.075700    0.020900   -0.059600
O      1.146300   -0.543200   -0.168400
C     -1.194800   -0.693300   -0.038400
C     -2.212900   -1.336200   -0.025300
C     -3.453100   -2.112400   -0.012200
C     -3.241800   -3.559700    0.030700
C     -3.081800   -4.748300    0.066700
H      0.783100    1.933400    0.079500
H     -0.948500    1.810800    0.189900
H     -4.062600   -1.803900    0.848500
H     -4.046100   -1.853500   -0.900500
H     -2.930200   -5.799000    0.097800
