14
gdb_13846
N      0.314600    0.440200    0.909800
C     -0.108400    0.217800   -0.358200
O      0.473800    0.590200   -1.359400
C     -1.458900   -0.515600   -0.445700
C     -1.554900   -1.429500   -1.689400
O     -1.741000   -2.755900   -1.122700
C     -1.799600   -2.577800    0.209300
N     -1.684900   -1.413500    0.704300
H      1.215400    0.867300    1.049700
H     -0.140900   -0.043600    1.667700
H     -2.229100    0.264200   -0.454100
H     -2.414700   -1.215300   -2.327200
H     -0.641500   -1.415300   -2.285700
H     -1.945100   -3.488000    0.780700
