13
gdb_16482
O     -0.067500    1.353300    0.085600
C      0.079500   -0.005400    0.065300
C     -0.201600   -0.865900   -1.172900
N      0.562200   -2.126300   -1.002900
C      0.014200   -2.112700    0.405800
C     -1.085500   -1.053200    0.016100
C      0.785400   -0.918500    1.025400
O      1.447700   -0.767700    2.010200
H      0.611800    1.750400   -0.471200
H     -0.393500   -0.390400   -2.127600
H      0.055400   -2.849700   -1.514400
H     -0.113500   -3.051200    0.936100
H     -2.123500   -0.886300    0.266600
