16
gdb_17397
C      0.040900    1.516800   -0.157300
O      1.437600    1.550300    0.215000
C      1.437600    0.139400    0.503600
C      0.002000   -0.014700   -0.032600
C     -1.085400   -0.835200    0.736400
C     -1.301900   -1.656200   -0.542800
O     -1.657900   -0.731700   -1.578100
C     -0.269600   -0.892900   -1.260500
H     -0.587000    2.053600    0.566300
H     -0.136100    1.925900   -1.158600
H      2.225300   -0.396600   -0.041900
H      1.549100   -0.063500    1.578000
H     -0.653300   -1.415300    1.557000
H     -1.960400   -0.286700    1.094600
H     -1.635000   -2.680700   -0.657000
H      0.401700   -1.166200   -2.067600
