15
gdb_11442
O      0.073400    1.340500    0.199300
C      0.036400   -0.058500    0.045000
C     -1.394800   -0.566900   -0.112700
C     -1.511600   -2.107500   -0.108000
N     -1.887900   -2.334100    1.272000
C     -2.402200   -1.205600    1.866400
O     -2.963200   -1.107400    2.920200
O     -2.152900   -0.138800    1.037700
H     -0.509500    1.552100    0.938400
H      0.608900   -0.298300   -0.858100
H      0.509400   -0.582600    0.892500
H     -1.856100   -0.108900   -0.990700
H     -2.270200   -2.462900   -0.817200
H     -0.557100   -2.583900   -0.357000
H     -2.195900   -3.228400    1.615400
