16
gdb_12621
C     -0.011100    1.577400    0.054700
C      0.045000    0.046800   -0.035600
C      0.840700   -0.517800   -1.239100
O      1.293400    0.532900   -2.085800
C      1.986100   -1.281100   -0.601000
C      1.925500   -1.307300    0.732800
C      0.744100   -0.544300    1.204000
O      0.385800   -0.392900    2.348300
H      0.991800    2.011100    0.048700
H     -0.561600    2.000400   -0.788100
H     -0.507800    1.858000    0.986900
H     -0.980300   -0.338700   -0.044800
H      0.212700   -1.213400   -1.817600
H      1.723100    0.138000   -2.851200
H      2.756800   -1.747700   -1.207900
H      2.614500   -1.790400    1.414300
