15
gdb_2306
C      0.110300    1.520200    0.067200
C      0.043500    0.067100    0.034800
C     -0.015100   -1.136100    0.016800
C     -0.042200   -2.572700   -0.029200
O     -0.513900   -3.274600    1.138000
C     -1.302200   -3.352600   -0.047200
C     -2.664100   -2.713400   -0.016300
H      1.147200    1.871300    0.027900
H     -0.424400    1.963300   -0.780300
H     -0.339100    1.913400    0.985600
H      0.834800   -3.033100   -0.484900
H     -1.253800   -4.326100   -0.540600
H     -2.612400   -1.710700    0.412700
H     -3.072800   -2.642000   -1.030000
H     -3.352800   -3.317600    0.583200
