15
gdb_17119
N      0.377100    0.934200    0.566500
C      0.110700   -0.156600    0.014900
C     -1.053000   -1.122200    0.051500
C     -0.212700   -1.916900   -0.978000
O      0.835800   -0.900500   -0.902600
C      0.267400   -3.280000   -0.560100
C      1.694500   -3.605000   -0.452300
O      0.899300   -3.359800    0.713100
H      1.287700    1.290200    0.271600
H     -1.190000   -1.620100    1.012100
H     -2.000800   -0.716900   -0.303800
H     -0.629300   -1.953400   -1.989800
H     -0.440700   -4.084000   -0.771000
H      2.022000   -4.634500   -0.586000
H      2.425300   -2.833300   -0.678600
