14
gdb_14809
C     -0.388000   -1.163900   -0.486100
C     -0.185400   -0.025800   -0.159400
C      0.052800    1.354900    0.212100
N      0.292400    1.628100    1.650000
C      1.325800    2.633600    1.333700
C      1.449100    2.022700   -0.095900
C      2.559800    1.104700   -0.273700
N      3.459800    0.395400   -0.424500
H     -0.550900   -2.175700   -0.765700
H     -0.729200    1.991300   -0.229700
H     -0.514600    1.957700    2.167900
H      0.971500    3.672200    1.284700
H      2.214900    2.583800    1.966400
H      1.434400    2.735800   -0.921000
