18
gdb_17290
C     -0.001700    1.535300   -0.030400
C     -0.003800    0.025100   -0.002700
C     -1.347200   -0.735900    0.083800
O     -0.865900   -1.538900    1.193500
C      0.385100   -0.807100    1.236800
C      1.579100   -1.429800    0.483700
C      1.101400   -2.162700   -0.734800
C      1.152600   -0.662200   -0.781100
H      0.999900    1.929800    0.174000
H     -0.307900    1.911900   -1.014000
H     -0.687600    1.949200    0.716100
H     -2.195600   -0.109600    0.389900
H     -1.642700   -1.347000   -0.777100
H      0.591600   -0.374100    2.219300
H      2.568000   -1.579200    0.900300
H      1.881800   -2.657400   -1.304300
H      0.162500   -2.703800   -0.701800
H      1.776100   -0.140100   -1.498100
