13
gdb_21021
C      0.004000    1.480300    0.043700
N     -0.023700    0.025400    0.006300
C     -1.149600   -0.699000   -0.220700
N     -1.224500   -1.986800   -0.263100
C     -0.037900   -2.707600   -0.056500
O      0.014500   -3.919300   -0.073400
C      1.159400   -1.874100    0.186300
N      1.170400   -0.583100    0.216800
H      0.679000    1.861500   -0.726600
H     -1.002900    1.858900   -0.136700
H      0.351300    1.822800    1.021500
H     -2.047400   -0.100800   -0.375800
H      2.110000   -2.371700    0.353500
