17
gdb_20113
O     -0.173700    0.137500    0.558800
C     -0.079000    1.254300    0.091600
C      1.193400    2.028600    0.067200
C      2.122100    1.871100    1.262200
C      2.484300    1.234600   -0.037000
N     -1.150500    1.893600   -0.540800
C     -1.798200    3.088900   -0.022700
C     -2.503100    1.764600   -0.055500
H      1.154900    2.994900   -0.420900
H      2.664600    2.752000    1.585900
H      1.767500    1.221700    2.054100
H      2.366900    0.160400   -0.115800
H      3.282200    1.666800   -0.629500
H     -1.475600    3.459900    0.947300
H     -2.038900    3.857100   -0.752500
H     -3.262400    1.579100   -0.809400
H     -2.637900    1.232800    0.882300
