8
gdb_754
N     -0.132800    1.301200    0.008800
C     -0.003600    0.057300    0.001300
O     -1.078000   -0.809300    0.003800
C     -0.531500   -2.040600   -0.006400
N      0.743600   -2.085500   -0.015200
O      1.125500   -0.714000   -0.010300
H      0.771400    1.766100    0.005300
H     -1.187800   -2.896600   -0.006600
