16
gdb_10096
C     -0.073600    1.503800    0.008000
O     -0.034900    0.075800   -0.031000
C     -1.217800   -0.539400    0.013300
N     -1.084800   -1.935600   -0.029700
C      0.042800   -2.740500   -0.102100
O      1.191900   -2.394800   -0.144900
N     -2.318800    0.087100    0.084200
C     -3.566300   -0.648100    0.128600
H      0.969200    1.818300   -0.036400
H     -0.634600    1.899700   -0.842400
H     -0.545100    1.853600    0.930000
H     -1.960800   -2.433600   -0.002100
H     -0.270800   -3.805100   -0.116000
H     -3.735100   -1.260100   -0.772300
H     -3.641700   -1.312100    1.004900
H     -4.396500    0.059400    0.192800
