18
gdb_7787
C      0.000900    1.567600    0.003900
C      0.053000    0.040400   -0.013600
C      0.701000   -0.509200   -1.286500
C      0.853700   -2.026400   -1.189800
N      1.561500   -2.360300    0.034200
C      1.421300   -1.679700    1.225500
O      1.848900   -2.116200    2.280800
N      0.819900   -0.441300    1.129400
H      1.008500    1.988500   -0.070200
H     -0.599000    1.941800   -0.831200
H     -0.453900    1.934300    0.930600
H     -0.982800   -0.338800    0.031500
H      0.089300   -0.250500   -2.155800
H      1.687200   -0.049000   -1.414800
H     -0.140000   -2.501700   -1.230400
H      1.424600   -2.406200   -2.043800
H      1.901000   -3.299900    0.162400
H      0.643200   -0.028500    2.032200
