14
gdb_15277
C     -0.109700   -1.219600    0.194600
C     -0.047100   -0.020100    0.146700
C      0.019500    1.412400    0.047800
N      0.677200    2.150200    1.152900
C      1.309900    2.144000   -0.160600
C      2.626900    1.393700   -0.266700
C      3.763500    2.237400    0.100700
N      4.651200    2.922000    0.380000
H     -0.169100   -2.278700    0.251200
H     -0.855000    1.873200   -0.406800
H      0.193200    3.027400    1.324200
H      1.253600    3.046800   -0.765000
H      2.597300    0.517700    0.387200
H      2.772100    1.033400   -1.291700
