16
gdb_18566
O     -0.289900    0.267700    0.605400
C     -0.093600    1.348700    0.150700
O     -1.013300    2.202700   -0.405700
C      0.019900    3.215000   -0.693200
C     -0.115900    4.447000    0.191600
C      0.402500    3.988100    1.571000
C      1.554600    3.016400    1.236700
C      1.090000    2.300600   -0.044900
H      0.059700    3.402200   -1.766400
H      0.529100    5.235400   -0.215800
H     -1.139100    4.831100    0.209800
H      0.722900    4.821100    2.200800
H     -0.390800    3.460200    2.110400
H      2.473200    3.573000    1.020300
H      1.776400    2.315200    2.045200
H      1.892200    1.900200   -0.664700
