19
gdb_13631
C     -0.784900    1.241500    0.395100
N     -0.208900   -0.094200    0.297700
C      1.030900   -0.250800   -0.446200
C      1.010600   -0.411400    1.038700
C      1.712400    0.572800    1.943900
O      0.984000    0.786400    3.164100
C      3.136900    0.125700    2.292200
O      3.723100    1.006700    3.223700
H     -0.054400    2.061100    0.316500
H     -1.512200    1.363000   -0.413500
H     -1.305300    1.341100    1.351300
H      1.101600   -1.118400   -1.096900
H      1.508000    0.648800   -0.836200
H      1.007300   -1.429000    1.437000
H      1.769200    1.563000    1.483000
H      0.720700   -0.077500    3.503400
H      3.104300   -0.909800    2.679300
H      3.764600    0.119900    1.394800
H      3.019700    1.211100    3.854500
