16
gdb_4838
C      0.249100    1.517300   -0.082300
C     -0.026100    0.016000    0.109200
C      0.602200   -0.549800    1.334000
N      0.048600   -1.073900    2.374400
C      1.105000   -1.446300    3.206000
C      2.272700   -1.103800    2.603300
N      3.613600   -1.126600    2.954700
O      1.978500   -0.527900    1.405400
H      1.322900    1.711600   -0.153500
H     -0.224600    1.880000   -0.999200
H     -0.144300    2.095900    0.758600
H     -1.099300   -0.171900    0.193700
H      0.331300   -0.534100   -0.771000
H      0.946000   -1.923800    4.158900
H      3.793700   -1.738400    3.739000
H      4.220900   -1.360100    2.178200
