18
gdb_8145
C      0.031700    1.479400    0.054000
C     -0.012700   -0.014000   -0.016800
C     -0.049500   -0.775200   -1.118700
C     -0.032700   -2.230700   -0.807400
C      1.211900   -2.737000   -0.077200
C      0.020200   -2.309100    0.714800
O     -0.610600   -3.311000    1.451500
C     -0.022500   -0.871700    1.236800
H      0.947300    1.833300    0.545300
H     -0.010600    1.929200   -0.942000
H     -0.806800    1.875000    0.642400
H     -0.059200   -0.388200   -2.132600
H     -0.599400   -2.941700   -1.398500
H      1.382800   -3.807900   -0.103200
H      2.104500   -2.119300   -0.088600
H     -1.553500   -3.112800    1.474500
H      0.817300   -0.647900    1.906800
H     -0.936000   -0.701600    1.828100
