17
gdb_20899
C     -0.196500    1.523900    0.162400
C      0.136400    0.043200   -0.017300
N      0.767300   -0.531400    1.158900
C      0.297500   -1.444800    2.030200
N      1.180000   -1.680100    2.982000
C      2.216400   -0.856100    2.643200
C      3.479400   -0.765700    3.431900
N      2.008600   -0.140600    1.544600
H      0.711200    2.089500    0.383800
H     -0.642700    1.921200   -0.754000
H     -0.904200    1.668800    0.983900
H     -0.766600   -0.543200   -0.211500
H      0.813800   -0.097200   -0.865200
H     -0.675000   -1.904100    1.927500
H      3.976500   -1.739700    3.480100
H      4.158200   -0.043500    2.975200
H      3.271500   -0.457200    4.461300
