20
gdb_6220
C      0.644100    1.505500    0.017400
C      0.001400    0.124200   -0.002500
C      0.394900   -0.749000   -1.218500
C      1.415400   -1.744700   -0.646900
C      1.518900   -3.069600   -1.399100
O      2.672300   -1.059500   -0.664900
C      0.891800   -1.879700    0.791600
O      0.435100   -0.597500    1.165400
H      1.727900    1.413200   -0.088800
H      0.256800    2.122600   -0.800500
H      0.423600    2.010400    0.962400
H     -1.091900    0.229700    0.048400
H     -0.471300   -1.288200   -1.611800
H      0.835900   -0.166900   -2.030300
H      1.867800   -2.896900   -2.420900
H      2.236100   -3.739200   -0.908800
H      0.555000   -3.586100   -1.440800
H      3.301400   -1.575300   -0.149200
H      0.080300   -2.626800    0.832100
H      1.671500   -2.191500    1.497300
