20
gdb_18086
O     -0.087700    1.386700    0.030700
C     -0.102600   -0.018300    0.237900
C     -1.435500   -0.554500   -0.273200
C     -1.542500   -2.058400   -0.126900
C     -1.904300   -2.794200    1.140100
C     -2.992500   -2.059500    1.936200
C     -3.928400   -2.118900    0.685600
C     -2.823200   -2.849300   -0.089600
H      0.747500    1.730400    0.360300
H      0.726700   -0.508600   -0.299000
H      0.010600   -0.267800    1.305200
H     -2.237800   -0.039800    0.263900
H     -1.541300   -0.274000   -1.328400
H     -0.770400   -2.591100   -0.682000
H     -1.263700   -3.570100    1.543600
H     -3.380100   -2.656700    2.764400
H     -2.733100   -1.068200    2.322100
H     -4.801600   -2.750900    0.861100
H     -4.272700   -1.167000    0.269000
H     -2.991900   -3.672300   -0.774700
