16
gdb_16636
O     -0.044600    1.475500   -0.044900
C     -0.041200    0.071700   -0.004700
C     -1.402500   -0.587900   -0.028000
C     -2.155700   -0.559900   -1.332100
C     -1.337600   -1.777100   -0.980200
C      0.055400   -1.862100   -1.587300
C      0.669200   -0.511500   -1.239200
O      1.512700    0.100000   -1.846300
H      0.705200    1.720400   -0.607900
H      0.509400   -0.291500    0.884300
H     -1.960900   -0.651700    0.897700
H     -3.234600   -0.650600   -1.281800
H     -1.806300    0.103500   -2.118300
H     -1.853500   -2.698500   -0.738500
H      0.648300   -2.656000   -1.113400
H      0.084300   -2.031500   -2.667400
