17
gdb_19692
C      0.169800    1.342900    0.016100
O     -0.181100   -0.005100    0.240700
C      0.621100   -0.640800    1.203100
C      0.190500   -2.099800    1.312600
C      1.196600   -2.527000    0.312800
C      1.973700   -1.198600    0.660400
C      2.499100   -1.971900    1.876700
N      1.359500   -2.944200    1.733500
H      1.185900    1.447100   -0.392100
H     -0.541900    1.743700   -0.709400
H      0.107600    1.937000    0.941000
H      0.675900   -0.031200    2.120000
H     -0.797300   -2.489900    1.517600
H      1.167000   -3.206100   -0.527800
H      2.606100   -0.596100    0.011200
H      3.433500   -2.508400    1.694300
H      2.553100   -1.451200    2.841000
