17
gdb_19990
N     -0.104600   -1.155300    0.035700
C     -0.060800    0.001300    0.031800
C     -0.000800    1.435100    0.026400
C      0.500300    2.167800    1.264900
C      1.355100    2.143400    0.034000
C      2.629700    1.366600   -0.013100
C      3.462800    1.353700   -1.270900
C      3.952300    2.094100   -0.051800
H     -0.798800    1.906000   -0.537400
H     -0.017500    3.080400    1.536300
H      0.806600    1.552700    2.103500
H      1.366100    3.057000   -0.555100
H      2.608300    0.439700    0.552500
H      3.952900    0.427800   -1.548700
H      3.114800    1.941300   -2.114200
H      3.933900    3.178800   -0.075400
H      4.780800    1.678000    0.510200
