18
gdb_6607
O     -0.112300    1.400600    0.010400
C     -0.059900   -0.019300   -0.002900
C     -1.466000   -0.537200    0.020300
C     -2.582500   -0.277900   -1.039500
C     -3.216800   -1.178900    0.041500
O     -4.525400   -1.618000   -0.017600
C     -1.905300   -2.030700    0.022500
C     -2.541200   -0.274200    1.117600
H      0.789300    1.734000   -0.015900
H      0.453100   -0.393100   -0.904300
H      0.488300   -0.408600    0.871100
H     -2.957300    0.745300   -1.108800
H     -2.433800   -0.728200   -2.024900
H     -4.712400   -2.125900    0.779200
H     -1.706700   -2.603300   -0.887900
H     -1.673600   -2.606100    0.924500
H     -2.354400   -0.725000    2.097800
H     -2.908700    0.750600    1.202100
