12
gdb_21390
N      0.025100    1.319800    0.055700
N      1.298700    1.815400    0.032900
C      2.081900    0.769500   -0.006100
N      1.355100   -0.398300   -0.009200
C      1.372400   -1.789000   -0.035000
C      0.043100   -2.141000   -0.007800
N     -0.812300   -1.052500    0.033800
C      0.021800   -0.041500    0.031200
H     -0.757600    1.947000    0.088600
H      3.156900    0.823600   -0.032200
H      2.282200   -2.361000   -0.069000
H     -0.354100   -3.145600   -0.016000
