20
gdb_10394
C      0.557700   -1.042600   -1.753700
C      0.143400   -0.276500   -0.492700
C     -1.318900   -0.460300   -0.101400
C     -2.302400    0.203800   -1.069100
O     -2.150800    1.608200   -1.037100
C     -1.755500   -1.855200    0.409200
C     -2.116200   -1.118400    1.712500
O     -1.565700    0.124400    1.222000
H      1.630500   -0.929800   -1.934600
H      0.350200   -2.114800   -1.661800
H      0.036600   -0.677000   -2.643700
H      0.756700   -0.595700    0.357400
H      0.320100    0.795800   -0.629000
H     -2.127500   -0.120000   -2.100400
H     -3.328500   -0.094300   -0.797900
H     -2.183200    1.843100   -0.100000
H     -2.581600   -2.325400   -0.128000
H     -0.936400   -2.569900    0.506200
H     -3.190400   -1.037400    1.920000
H     -1.606400   -1.455000    2.621800
