8
gdb_8962
O      0.033200   -0.075000    0.003000
C     -0.016600    1.130700    0.006800
C      1.195100    1.960900    0.000800
N      2.150000    2.612600   -0.003900
C     -1.249200    1.881300    0.017200
C     -2.295000    2.488200    0.026000
C     -3.473600    3.175800    0.035900
N     -4.475900    3.762000    0.044300
