16
gdb_20627
C     -0.090800    1.569000    0.035100
C      0.069000    0.080500   -0.004500
C      0.126700   -0.801500   -1.073400
C      0.133600   -1.332000   -2.504300
C      0.311500   -2.757500   -1.836700
N      0.277900   -2.031300   -0.560900
N      0.333100   -2.106000    0.771100
C      0.204300   -0.807700    1.103100
H     -0.092700    1.927100    1.068500
H      0.722000    2.085400   -0.488300
H     -1.030000    1.895700   -0.425800
H     -0.795900   -1.210400   -3.065500
H      0.974000   -1.018700   -3.128100
H     -0.519800   -3.453500   -1.975800
H      1.260600   -3.260700   -2.038600
H      0.211100   -0.529900    2.148500
