15
gdb_3501
O     -0.729300    0.846700    0.595900
C      0.067800    1.075200   -0.281200
C      1.257300    1.984700   -0.174400
C      1.112900    3.509400   -0.559600
C      0.349800    3.716200    0.779700
C      1.557000    2.789100    1.123300
C      2.427600    3.732800    0.240500
H     -0.035600    0.587500   -1.279700
H      2.118700    1.500600   -0.652700
H      0.858900    3.903100   -1.544600
H      0.391900    4.726800    1.194300
H     -0.645200    3.284300    0.871200
H      1.810300    2.368800    2.096100
H      3.343700    3.312900   -0.184200
H      2.587800    4.742900    0.625900
