9
gdb_61
N     -0.160300    1.085300   -0.454000
C      0.186500   -0.087600    0.147600
N      1.289800   -0.464300    0.679300
C     -0.942000   -1.084400    0.204200
O     -2.018000   -0.890100   -0.305800
H      0.545700    1.738400   -0.746900
H     -1.046800    1.095700   -0.936100
H      2.017400    0.249900    0.598800
H     -0.677400   -2.010000    0.747500
