24
gdb_15259
C      3.045500    1.598400   -0.083600
C      2.312500    0.283200    0.209800
C      1.966000   -0.482000   -1.053800
C      2.903900   -1.479100   -1.710700
C      4.276500   -1.811000   -1.161100
C      1.614400   -1.955800   -1.066100
C      1.573600   -2.814900    0.184100
C      1.635900   -4.314500   -0.132800
H      3.996000    1.415600   -0.595600
H      2.444300    2.248500   -0.729100
H      3.259200    2.149800    0.837700
H      2.922900   -0.327000    0.882600
H      1.387800    0.500300    0.761400
H      1.392100    0.124600   -1.753000
H      2.886300   -1.465900   -2.798200
H      4.306700   -1.827800   -0.069000
H      4.609600   -2.795000   -1.510500
H      5.018900   -1.077300   -1.495400
H      0.831200   -2.227000   -1.772600
H      2.390800   -2.556100    0.864300
H      0.648100   -2.600200    0.735200
H      0.808800   -4.613300   -0.786400
H      2.568800   -4.571900   -0.645000
H      1.574100   -4.917400    0.779000
