15
gdb_15648
O     -0.039600    1.452500    0.009700
C      0.042600    0.036300    0.031500
C     -1.385200   -0.504500   -0.052200
C     -2.100400   -0.271900   -1.359300
C     -2.492000   -1.452700   -1.846500
N     -2.110000   -2.505200   -0.996600
C     -1.406400   -2.039100    0.097500
O     -0.906500   -2.712800    0.970000
H      0.854100    1.805300    0.051500
H      0.631800   -0.345200   -0.816700
H      0.500800   -0.337400    0.958200
H     -1.941700   -0.073400    0.791200
H     -2.265300    0.695900   -1.804800
H     -3.035800   -1.678900   -2.752600
H     -2.252800   -3.485800   -1.171700
