18
gdb_15228
C      1.436400   -0.220500    1.227200
C      0.251200   -0.477500    0.288500
C      0.714300   -0.815500   -1.114400
C      0.944200   -2.238900   -1.567300
C      0.637100   -3.317400   -0.660600
N      0.385700   -4.194100    0.052100
N     -0.126900   -1.410300   -2.138900
C     -1.521400   -1.742200   -1.862700
H      2.048600   -1.120200    1.342700
H      2.080600    0.578400    0.844200
H      1.088300    0.078200    2.219700
H     -0.370100   -1.278700    0.697100
H     -0.380800    0.418100    0.235800
H      1.417100   -0.088900   -1.524100
H      1.760200   -2.466400   -2.248500
H     -1.708400   -2.187400   -0.877500
H     -2.114400   -0.827800   -1.954200
H     -1.863600   -2.448200   -2.624500
