20
gdb_9839
C      0.285300    1.677200   -0.134700
C      0.127300    0.158100    0.007900
C      0.610500   -0.579200   -1.253600
O     -0.123100   -0.212700   -2.413500
C      0.796300   -0.398300    1.261100
C      2.301100   -0.275200    1.387900
C     -0.010400   -0.539700    2.483500
O      0.276300   -1.678500    1.668000
H      1.338900    1.963600   -0.220800
H     -0.221300    2.016000   -1.041400
H     -0.139600    2.207200    0.723500
H     -0.942600   -0.071900    0.113000
H      1.650500   -0.315700   -1.475200
H      0.571000   -1.664200   -1.080100
H     -1.021200   -0.542700   -2.307400
H      2.616500    0.772700    1.380200
H      2.637000   -0.730300    2.322600
H      2.810900   -0.785800    0.564600
H      0.477600   -0.528700    3.457700
H     -1.051200   -0.216800    2.487600
