18
gdb_10511
O     -0.029800    1.670400   -0.151400
C      0.015600    0.257800   -0.117200
C     -1.367900   -0.387400   -0.044800
C     -2.333200    0.285400    0.937000
C     -1.737100    0.407800    2.322500
O     -0.897900    1.230000    2.614600
C     -1.973100   -0.953700   -1.304800
C     -1.435600   -1.882600   -0.242300
H     -0.180900    1.954400    0.761100
H      0.516500   -0.072900   -1.034100
H      0.627000   -0.092200    0.727800
H     -2.541400    1.297800    0.573900
H     -3.272800   -0.273700    0.981900
H     -2.087900   -0.319400    3.085900
H     -3.048900   -0.893400   -1.432800
H     -1.410200   -0.845900   -2.225900
H     -0.507000   -2.407800   -0.443500
H     -2.145900   -2.455400    0.344800
