22
gdb_7393
C      0.060400    1.608000   -0.077900
C      0.049100    0.078700   -0.014600
C     -1.364000   -0.511300   -0.029200
C     -1.379300   -2.041600    0.087600
O     -0.717900   -2.489300    1.264700
C     -2.808300   -2.612900    0.054300
C     -2.824300   -4.134600   -0.058400
O     -3.409100   -2.174900    1.279500
H      1.082100    2.000700   -0.063700
H     -0.423500    1.974000   -0.990800
H     -0.474800    2.043000    0.773700
H      0.619700   -0.328000   -0.860800
H      0.561500   -0.265300    0.889900
H     -1.955900   -0.092500    0.794700
H     -1.878600   -0.223900   -0.957000
H     -0.817800   -2.470800   -0.752300
H     -1.350500   -2.338700    1.979800
H     -3.346100   -2.173300   -0.800500
H     -2.216400   -4.576600    0.735100
H     -3.847000   -4.523300    0.016400
H     -2.421200   -4.455300   -1.024300
H     -4.202900   -2.695600    1.431800
