16
gdb_5080
C      0.010100    1.505700    0.060100
C      0.021000    0.008100    0.017600
C     -0.005200   -0.804300   -1.099800
N      0.018900   -2.106100   -0.688100
C      0.059400   -2.171000    0.691400
N      0.088800   -3.424800    1.341900
C      0.061300   -0.868200    1.141000
O      0.096900   -0.530100    2.469400
H      0.909900    1.916900    0.537900
H     -0.034500    1.923700   -0.949600
H     -0.855400    1.901200    0.609100
H     -0.038400   -0.543400   -2.145700
H      0.008900   -2.924000   -1.271200
H     -0.706200   -3.535400    1.964400
H      0.920000   -3.521400    1.917800
H      0.092300    0.429100    2.535200
