20
gdb_17921
O      0.144100    1.367600   -0.141400
C      0.017800   -0.030400    0.011600
C      0.425900   -0.622600    1.383400
C     -0.669200   -0.050700    2.314300
C     -1.942200   -0.035500    1.402100
C     -1.421600   -0.600600    0.059500
C     -1.133100   -2.105400    0.237100
C      0.141200   -2.120600    1.150300
H     -0.352300    1.802300    0.558600
H      0.600600   -0.460600   -0.808900
H      1.445400   -0.402100    1.704300
H     -0.800500   -0.663300    3.210600
H     -0.410700    0.955500    2.661800
H     -2.758300   -0.639900    1.807700
H     -2.338400    0.978600    1.280500
H     -2.049600   -0.360300   -0.800200
H     -1.979400   -2.633700    0.685600
H     -0.931600   -2.581300   -0.727300
H      0.982100   -2.604200    0.644100
H     -0.019800   -2.657100    2.089800
