15
gdb_3408
C     -0.091400    1.582200    0.016000
C      0.157700    0.087600    0.037500
O      1.318200   -0.353200   -0.751700
C      1.752700   -1.190000    0.331600
C      2.190600   -0.314900    1.448700
O      2.791500    0.919500    1.212400
C      0.705400   -0.610300    1.280800
H      0.736400    2.133400    0.464200
H     -0.244500    1.926600   -1.012100
H     -1.001500    1.806800    0.582900
H     -0.719200   -0.448900   -0.346900
H      2.078400   -2.196100    0.091600
H      2.630900   -0.825000    2.301300
H      2.749900    1.048300    0.254600
H      0.109500   -1.084800    2.049600
