22
gdb_13285
C     -0.008300    1.399400   -0.037100
O      0.008300    0.000100    0.094200
C     -1.276300   -0.576900   -0.003500
C     -1.148100   -2.087800    0.142900
C     -2.484100   -2.810400    0.039800
C     -3.216400   -2.882400   -1.333900
C     -3.623200   -4.342100   -0.997800
C     -2.499600   -4.365100    0.073300
H      1.022900    1.750900    0.051200
H     -0.408100    1.715800   -1.014300
H     -0.614600    1.878800    0.748700
H     -1.939300   -0.170400    0.781200
H     -1.737200   -0.320900   -0.973800
H     -0.463800   -2.457700   -0.631300
H     -0.675900   -2.305800    1.109100
H     -3.174600   -2.423400    0.800100
H     -4.012900   -2.160800   -1.532500
H     -2.500800   -2.845400   -2.162700
H     -4.617000   -4.390800   -0.543200
H     -3.575300   -5.081000   -1.801100
H     -1.568100   -4.776200   -0.329800
H     -2.707900   -4.853200    1.028800
