12
gdb_885
C      0.073600    1.470500    0.057500
C     -0.060900   -0.001000   -0.018900
C     -1.066800   -0.832300   -0.275800
O     -0.610700   -2.140100   -0.211200
C      0.725900   -2.074900    0.098900
N      1.538700   -3.019100    0.257100
O      1.075800   -0.761400    0.219900
H      0.807400    1.835600   -0.669300
H     -0.887800    1.945400   -0.149200
H      0.411100    1.782200    1.051800
H     -2.105400   -0.683600   -0.510900
H      1.075900   -3.914100    0.122800
