18
gdb_8223
C      0.132200    1.412600    0.213500
C     -0.151800   -0.067200    0.113800
O     -0.666900   -0.741900    0.969300
O      0.255000   -0.551000   -1.081100
C      0.054900   -1.951600   -1.295100
C     -1.332200   -2.427300   -1.781200
C     -0.589800   -3.364500   -2.776400
C      0.678800   -2.481000   -2.597600
H      1.205300    1.596100    0.107300
H     -0.369600    1.946700   -0.598200
H     -0.215500    1.785200    1.176100
H      0.379900   -2.496600   -0.406300
H     -2.002600   -2.865800   -1.041100
H     -1.849800   -1.618000   -2.304400
H     -0.450800   -4.368300   -2.367000
H     -0.999300   -3.453500   -3.783900
H      0.720500   -1.685500   -3.346700
H      1.654500   -2.967300   -2.537300
