15
gdb_18996
N     -0.029000    1.268300   -0.024600
C     -0.030700    0.008800   -0.005600
O      1.071300   -0.823400   -0.027500
C      0.467900   -2.123300    0.011000
C     -0.790800   -2.144400   -0.898100
C     -1.461500   -3.129600    0.086600
C     -0.731500   -2.115800    0.997300
C     -1.185200   -0.944900    0.044900
H      0.927500    1.626400   -0.060000
H      1.225000   -2.904400   -0.000900
H     -0.816100   -2.142700   -1.987900
H     -2.552500   -3.110100    0.120400
H     -1.086700   -4.157300    0.090400
H     -0.688600   -2.081200    2.085900
H     -2.196300   -0.548300    0.070600
