15
gdb_16941
O     -0.008300   -0.002800   -0.072600
C      0.028300    1.187700   -0.020100
O     -1.095300    1.978100    0.045100
C     -0.629900    3.355600    0.093200
C      0.004200    3.551500    1.480600
N      1.218400    2.690200    1.400000
C      1.207900    2.169800    0.006500
C      0.598800    3.313900   -0.829000
H     -1.462100    4.008300   -0.160700
H      0.246200    4.604000    1.664700
H     -0.671700    3.206000    2.268300
H      2.056300    3.243000    1.540200
H      2.155300    1.723500   -0.283500
H      0.342700    3.043200   -1.855800
H      1.195400    4.229400   -0.813600
