14
gdb_8266
C      0.228600    1.602700   -0.219800
C      0.101100    0.158800   -0.100900
C     -0.008800   -1.036400   -0.005900
C     -0.125000   -2.471400    0.109900
C      0.190600   -3.121500    1.480200
C     -1.279900   -3.533200    1.442300
O     -2.041900   -4.142800    2.118900
O     -1.528100   -2.934300    0.233000
H      1.281900    1.900900   -0.258200
H     -0.254900    1.968000   -1.132100
H     -0.232300    2.112800    0.632500
H      0.334400   -2.983300   -0.739900
H      0.896500   -3.952900    1.465900
H      0.444100   -2.425800    2.280200
