17
gdb_19405
C     -0.209800    1.586900   -0.071800
C      0.070100    0.099200    0.029400
N      0.984700   -0.517300   -1.016500
C      2.349000   -0.020500   -0.759200
C      1.829200   -1.099800    0.106200
C      0.927900   -0.498100    1.156400
C      1.185700   -0.108800    2.544000
O      0.361800   -1.240900    2.214900
H      0.696500    2.193200    0.012400
H     -0.686000    1.817000   -1.030300
H     -0.893400    1.896500    0.725800
H     -0.869300   -0.460900   -0.016000
H      3.046500   -0.291700   -1.545700
H      2.501800    0.973500   -0.346700
H      2.188900   -2.122800    0.093000
H      2.143400   -0.346400    3.005500
H      0.656400    0.737900    2.979300
