22
gdb_10522
C     -0.550000    0.702900    3.657800
C     -0.310300   -0.698800    3.089400
C      0.598600   -0.686900    1.852200
C      0.934900   -2.063900    1.297700
C     -0.227800   -2.849800    0.735000
O     -0.797800   -2.107600   -0.337400
C      2.267000   -2.245800    0.611200
C      2.028700   -2.862500    1.968000
H     -1.014900    1.357400    2.912100
H     -1.207800    0.674400    4.532200
H      0.391700    1.172100    3.964800
H      0.135200   -1.339700    3.861200
H     -1.276100   -1.152400    2.834900
H      0.125400   -0.096000    1.059000
H      1.535100   -0.173500    2.106500
H      0.130600   -3.833000    0.389500
H     -0.976000   -3.036200    1.521300
H     -1.614000   -2.542000   -0.601300
H      2.311800   -2.904100   -0.249900
H      2.927700   -1.387800    0.547900
H      2.522000   -2.418300    2.826300
H      1.923600   -3.941100    2.030300
