11
gdb_69
C     -0.054800    1.460300   -0.170700
C      0.071100   -0.035200    0.112300
O      0.582000   -0.333200    1.401800
C     -1.276400   -0.743800    0.030500
O     -2.118600   -0.496400   -0.791600
H      0.931600    1.930900   -0.233500
H     -0.577100    1.612900   -1.118400
H     -0.624400    1.947800    0.625700
H      0.696900   -0.500700   -0.671600
H      1.456000    0.060700    1.478600
H     -1.407200   -1.533900    0.802100
