19
gdb_13265
C     -0.268700    1.568000   -0.057600
N     -0.049900    0.154500    0.163900
C     -1.035500   -0.612000    0.015700
O     -0.921400   -1.937100    0.235900
C     -2.031100   -2.752600   -0.100100
C     -1.989400   -3.521100   -1.444600
C     -2.563100   -4.752100   -0.687800
C     -2.091300   -4.100300    0.643200
H      0.410600    1.927800   -0.839000
H     -1.300200    1.823000   -0.353400
H     -0.026800    2.126400    0.854200
H     -2.046300   -0.286600   -0.280700
H     -2.962200   -2.182600    0.011900
H     -2.551300   -3.114200   -2.288400
H     -0.951200   -3.682500   -1.746800
H     -3.652800   -4.804200   -0.755700
H     -2.151600   -5.730700   -0.938900
H     -1.080300   -4.419500    0.909500
H     -2.733500   -4.172000    1.523300
