17
gdb_13195
C     -0.343000    1.358600    0.983600
N      0.035900   -0.037200    0.933100
C      0.819900   -0.551400   -0.044100
O      1.313400    0.079000   -0.964600
C      1.069800   -2.050600    0.087700
C      2.497600   -2.457100    0.519200
C      1.799800   -3.057300    1.756100
O      0.494200   -2.650400    1.274600
H      0.115800    1.852900    0.125800
H     -1.430600    1.478800    0.926800
H      0.012400    1.836700    1.903500
H     -0.295800   -0.693300    1.624600
H      0.706100   -2.533600   -0.826200
H      2.989100   -3.176200   -0.135900
H      3.171800   -1.621300    0.706800
H      1.864000   -4.145800    1.860200
H      2.041000   -2.591600    2.718600
