20
gdb_5819
C      0.051900    1.535200   -0.074000
C     -0.020900   -0.000400    0.059100
C      0.741500   -0.455800    1.219700
C      1.377700   -0.799300    2.180900
C     -1.482000   -0.550900    0.065700
C     -1.472800   -2.085100    0.060400
C     -2.302300   -0.017100    1.246500
O     -2.026600   -0.074100   -1.170900
H      1.088200    1.847000   -0.227400
H     -0.548500    1.860200   -0.924900
H     -0.312600    2.031300    0.829200
H      0.439400   -0.429600   -0.841000
H      1.943300   -1.111200    3.023700
H     -1.010100   -2.485100    0.966100
H     -2.498200   -2.468800    0.005400
H     -0.922500   -2.458100   -0.808400
H     -2.400300    1.069800    1.195200
H     -3.310100   -0.448100    1.231000
H     -1.838100   -0.283500    2.200100
H     -2.937900   -0.379100   -1.225700
