12
gdb_11635
O      0.038300   -0.034200   -0.082200
C      0.017500    1.158900    0.069000
C      1.222000    2.028700    0.026000
C      1.764900    3.046400    1.067500
C      2.873200    2.888000   -0.000200
O      2.572300    1.434500   -0.049400
C      1.783700    3.016600   -1.091200
O      1.549000    3.449000   -2.163700
H     -0.926200    1.723900    0.236300
H      1.265700    4.011800    1.177300
H      2.023300    2.575000    2.017000
H      3.919300    3.183400    0.024300
