17
gdb_15376
O      0.006900    1.504700    0.171300
C      0.043600    0.088500    0.258000
C     -1.327700   -0.504500    0.003700
C     -2.556400    0.336500    0.019800
N     -2.094800   -0.289700   -1.220800
C     -1.566800    0.565100   -2.274100
C     -2.660200    0.873300   -3.284000
O     -2.616900    1.787300   -4.065400
H      0.910300    1.833400    0.198600
H      0.763100   -0.333200   -0.462700
H      0.364900   -0.236500    1.260500
H     -1.396600   -1.528500    0.370100
H     -3.486100   -0.050200    0.428300
H     -2.404600    1.406600    0.134000
H     -1.110700    1.501900   -1.930500
H     -0.789800    0.006600   -2.817800
H     -3.514000    0.159700   -3.252700
