15
gdb_18786
O      0.015600    0.024500    0.063400
C     -0.011100    1.221200    0.034100
C     -1.149400    2.249800   -0.059000
C     -1.261700    3.069000    1.258000
N     -0.056000    3.897100    0.932100
C      1.194200    3.122900    1.220300
C      1.077700    2.298600   -0.093100
C     -0.064500    3.302100   -0.472300
H     -2.052800    1.980000   -0.605600
H     -2.151600    3.704900    1.253700
H     -1.218400    2.529100    2.209500
H      2.054900    3.797200    1.189200
H      1.203800    2.582300    2.172400
H      1.974800    2.068400   -0.667400
H     -0.092100    3.947400   -1.347100
