14
gdb_2793
O     -0.002900    1.403500   -0.185600
C      0.010100    0.088700    0.327200
C     -1.345800   -0.581300    0.081500
N     -1.710200   -0.560700   -1.371100
C     -1.842300   -2.046300   -1.438600
C     -1.368400   -2.118500    0.023600
O     -1.106800   -2.996900    0.788100
H     -0.253300    1.309300   -1.114500
H      0.807000   -0.515600   -0.133900
H      0.215000    0.152500    1.399700
H     -2.105900   -0.153000    0.746700
H     -2.587100   -0.085800   -1.547800
H     -2.861800   -2.427500   -1.577100
H     -1.188700   -2.523100   -2.177000
