22
gdb_8953
C      0.025200    1.581400   -0.002100
C      0.000500    0.051500    0.016300
C     -1.416800   -0.528000   -0.004500
O     -2.133300   -0.128400   -1.172500
C     -1.429600   -2.064600    0.148600
O     -0.714100   -2.464400    1.317300
C     -2.846800   -2.644100    0.126400
C     -2.871600   -4.174000    0.144500
H      1.050300    1.960600   -0.050800
H     -0.526900    1.969700   -0.862600
H     -0.439800    1.993300    0.900600
H      0.545600   -0.343500   -0.855000
H      0.519600   -0.338100    0.896900
H     -1.993400   -0.099400    0.829200
H     -1.602600   -0.380300   -1.937100
H     -0.852300   -2.493200   -0.684700
H     -1.245600   -2.212600    2.081400
H     -3.392700   -2.249300    0.997400
H     -3.365100   -2.254200   -0.754500
H     -2.320300   -4.562500    1.005300
H     -3.896800   -4.553100    0.192100
H     -2.405800   -4.585700   -0.758000
