22
gdb_13718
C     -0.434200    1.344800    0.134100
C      0.343900    0.037500   -0.033400
C      0.705600   -0.598900    1.301300
O      1.424800   -1.795000    1.052000
C      1.801900   -2.468500    2.209700
C      0.805800   -3.375700    2.895800
C      1.971400   -3.955300    2.113700
C      1.732900   -4.678700    0.807000
H      0.145800    2.086100    0.695000
H     -0.680300    1.783200   -0.837300
H     -1.374500    1.184200    0.673300
H     -0.243400   -0.683000   -0.614300
H      1.267200    0.213300   -0.597300
H      1.319400    0.093300    1.902700
H     -0.202000   -0.815900    1.887400
H      2.496800   -1.910300    2.840300
H      0.803600   -3.440300    3.978600
H     -0.173600   -3.451600    2.433900
H      2.781200   -4.361900    2.714100
H      0.961800   -4.175500    0.219600
H      2.644500   -4.705300    0.200000
H      1.416000   -5.712200    0.983200
