15
gdb_2151
O      0.034600    1.398300   -0.000800
C      0.045600   -0.016700    0.080900
C      0.538000   -0.415100    1.489100
C     -0.711700   -0.871000    2.200200
C     -1.759400   -0.972300    1.384800
C     -1.420300   -0.580300   -0.030400
O     -2.319900    0.366700   -0.601900
H     -0.515500    1.613900   -0.764800
H      0.686100   -0.436900   -0.706700
H      1.280900   -1.221200    1.441200
H      1.025300    0.436300    1.976200
H     -0.719900   -1.112600    3.257900
H     -2.755700   -1.299000    1.661600
H     -1.456900   -1.438800   -0.711100
H     -2.440800    1.057200    0.061100
