16
gdb_16726
C      0.109100   -1.201600    0.132000
C      0.050400   -0.002200    0.071500
C     -0.010800    1.450400    0.013200
C     -0.706200    2.113300    1.249700
C      0.023400    3.431400    1.442800
O      1.311000    3.268600    2.048800
C      1.249800    3.450500    0.629400
C      1.384100    2.145800   -0.136600
H      0.159700   -2.260900    0.183300
H     -0.600300    1.729400   -0.869100
H     -1.774600    2.256000    1.067300
H     -0.597300    1.493200    2.143500
H     -0.515400    4.331300    1.730000
H      1.704400    4.365800    0.257800
H      2.178400    1.536400    0.302600
H      1.628400    2.308900   -1.189700
