20
gdb_7837
C      0.317300    1.425000    0.473000
C      0.075000   -0.036100    0.091900
C      0.813100   -0.440000   -1.178000
O      0.508600   -0.950800    1.110600
C     -0.271400   -0.950500    2.274200
C      0.224200   -1.840200    3.384600
C      0.365800   -0.335900    3.496500
O      1.619300    0.254500    3.344200
H      1.387700    1.625900    0.585600
H     -0.072100    2.085100   -0.308900
H     -0.178100    1.681800    1.412300
H     -1.006200   -0.188500   -0.056500
H      1.892700   -0.313400   -1.048200
H      0.617200   -1.488000   -1.418300
H      0.493400    0.179500   -2.020900
H     -1.342800   -0.861300    2.099800
H     -0.507100   -2.357600    3.996200
H      1.134400   -2.396200    3.184700
H     -0.245400    0.199600    4.216300
H      1.909100    0.026400    2.450000
