13
gdb_21144
C     -0.062800    1.424800    0.008000
N      0.006800   -0.025700    0.002900
C     -1.062600   -0.691200    0.009200
O     -2.303600   -0.012700    0.021500
N     -3.512100   -0.679800    0.027900
C     -3.448300   -1.962100    0.022700
C     -2.188100   -2.680500    0.011000
N     -1.054800   -2.080400    0.004600
H      0.952000    1.827500    0.000100
H     -0.601100    1.811400   -0.867400
H     -0.584800    1.805700    0.895800
H     -4.403200   -2.476800    0.027900
H     -2.195300   -3.769800    0.007500
