18
gdb_18053
C     -0.037300    1.573100   -0.064700
C      1.508300    1.524300    0.094100
C      1.365800    0.103600    0.677900
O      1.274200    0.208800    2.096200
C      0.347500   -0.686300    2.651900
O     -0.963200   -0.437000    2.223000
C     -1.099000   -0.714900    0.833700
C     -0.045500    0.019400    0.019300
H     -0.518600    2.018900    0.808200
H     -0.442900    2.026400   -0.971500
H      2.020700    1.509900   -0.871900
H      1.985400    2.254900    0.749400
H      2.108200   -0.659300    0.407600
H      0.628500   -1.730600    2.412900
H      0.368700   -0.529300    3.732100
H     -1.009400   -1.802500    0.668900
H     -2.112800   -0.412900    0.552500
H      0.030500   -0.421300   -0.979900
