18
gdb_18368
C     -0.370700    1.528200   -0.076400
C      0.040200    0.068800    0.010800
O      0.899400   -0.244400   -1.086400
C      1.502900   -1.496300   -0.787300
C      1.783300   -1.470700    0.714500
O      2.945000   -0.690200    1.057700
C      2.132300    0.382000    1.578800
C      0.825800   -0.374700    1.254100
H      0.497800    2.189300   -0.015600
H     -0.875300    1.719200   -1.027200
H     -1.060200    1.779900    0.735400
H     -0.865700   -0.562300   -0.049000
H      0.819800   -2.329300   -1.026500
H      2.413000   -1.595100   -1.383900
H      1.802900   -2.462300    1.177900
H      2.318400    0.549400    2.646600
H      2.297800    1.318800    1.034900
H      0.189900   -0.615200    2.105800
