11
gdb_5465
N      0.095300    1.387500    0.174400
C     -0.001600    0.033000    0.061600
C     -1.114700   -0.777700    0.019600
O     -0.658400   -2.089500   -0.033100
C      0.671100   -1.972100   -0.023900
N      1.129900   -0.759700    0.029600
C     -2.486400   -0.506900    0.015100
N     -3.612600   -0.223500    0.009000
H      0.983800    1.777500   -0.098400
H     -0.711000    1.933900   -0.083900
H      1.241600   -2.887400   -0.062700
