14
gdb_18198
C      0.088900   -1.224300    0.073500
C      0.049100   -0.024400    0.079600
C      0.013900    1.432300    0.033500
O     -0.627300    1.943900    1.206600
C     -0.067700    3.207300    1.551800
C      1.320200    3.218600    0.951300
O      2.064500    2.032900    1.254200
C      1.383400    2.105300    0.005600
H      0.125800   -2.285600    0.083900
H     -0.531800    1.751000   -0.872100
H     -0.655800    4.040900    1.134900
H     -0.074100    3.284300    2.643600
H      1.886900    4.139300    0.845800
H      1.989300    2.083500   -0.895100
