18
gdb_7085
C     -1.298100    0.267000    0.560200
C     -0.190000   -0.791400    0.532500
N      0.220000   -1.051600   -0.830500
C      1.398700   -0.848500   -1.261400
C      2.618100   -0.334700   -0.541700
N      1.565400   -1.162400   -2.629500
C      2.666500   -1.082900   -3.441400
O      3.775400   -0.707700   -3.134900
H     -0.923500    1.230800    0.200900
H     -2.129100   -0.033100   -0.084100
H     -1.675400    0.403200    1.578500
H      0.626200   -0.484600    1.201600
H     -0.588600   -1.731000    0.937100
H      2.391200   -0.101200    0.497300
H      3.422400   -1.073000   -0.580600
H      3.005700    0.556600   -1.039700
H      0.707800   -1.501000   -3.045500
H      2.411400   -1.419800   -4.465700
