13
gdb_12188
C      0.416600    1.496200   -0.080200
C      0.026300    0.038900    0.082500
O      0.764600   -0.866500   -0.789400
C      1.317400   -1.647100    0.282300
C      2.775100   -1.643800    0.326900
N      3.929300   -1.624200    0.383200
C      0.583400   -0.709500    1.298700
O      0.510300   -0.629300    2.479000
H      1.491500    1.633800    0.062800
H      0.150400    1.841800   -1.082800
H     -0.120100    2.105800    0.652800
H     -1.056300   -0.100500   -0.039600
H      0.942000   -2.678600    0.292700
