14
gdb_18144
O      0.181800    1.327000    0.003700
C      0.001900   -0.047000   -0.001800
C     -0.462200   -0.804600    1.190900
O     -1.368500    0.024400    1.939000
C     -2.347900   -0.032300    0.847200
C     -2.893100    1.258000    0.461500
C     -3.380300    2.313400    0.155400
C     -1.344300   -0.753600   -0.057200
H     -0.271200    1.665500    0.787800
H      0.759800   -0.545500   -0.599700
H      0.036800   -1.605000    1.725200
H     -3.160000   -0.703100    1.152400
H     -3.794700    3.249900   -0.127100
H     -1.603900   -1.508300   -0.787200
