20
gdb_5874
C     -0.073500    1.590900    0.063100
C      0.013900    0.062100   -0.090400
C      0.925900   -0.525900    1.000000
C     -1.391300   -0.557200    0.012100
C      0.565300   -0.287300   -1.482200
O      1.866000    0.281100   -1.687900
C      2.893000   -0.540100   -1.969700
O      4.005400   -0.147200   -2.153900
H      0.909700    2.053900   -0.053900
H     -0.743100    2.025700   -0.687400
H     -0.462100    1.856500    1.051500
H      0.524200   -0.307000    1.994400
H      1.007000   -1.615200    0.908000
H      1.933200   -0.103200    0.947400
H     -2.058200   -0.169200   -0.765900
H     -1.358700   -1.648400   -0.084000
H     -1.841900   -0.323100    0.981600
H      0.614700   -1.377000   -1.612000
H     -0.086000    0.119700   -2.263600
H      2.590100   -1.605300   -2.012200
