23
gdb_1570
C     -0.050200    1.618300   -0.090100
C      0.018200    0.092800    0.030800
C     -1.368800   -0.560100    0.080400
C     -1.376400   -2.100800    0.086500
C     -0.720200   -2.672400    1.352200
C     -2.815000   -2.622400   -0.098600
C     -2.934600   -4.132600   -0.327800
H      0.949400    2.062900   -0.124900
H     -0.581200    1.920000   -1.000100
H     -0.580900    2.059500    0.761100
H      0.579000   -0.316500   -0.820500
H      0.591900   -0.169900    0.927200
H     -1.910100   -0.195000    0.965900
H     -1.945900   -0.212400   -0.787600
H     -0.789100   -2.438500   -0.781800
H     -0.700600   -3.765800    1.339800
H      0.313500   -2.332700    1.461800
H     -1.270200   -2.359600    2.248700
H     -3.413800   -2.335800    0.777400
H     -3.264700   -2.100800   -0.953500
H     -2.600100   -4.710300    0.539200
H     -3.973200   -4.415800   -0.526200
H     -2.335100   -4.449800   -1.188900
