17
gdb_1519
C     -0.266600    1.462400    0.155900
C      0.308200    0.075600   -0.124600
N      0.910400   -0.507700    1.065300
C      0.838700   -1.869100    1.294400
O      0.140900   -2.623600    0.637800
N      1.636100   -2.298700    2.340500
C      1.491900   -3.653500    2.841900
H      0.511000    2.159400    0.489700
H     -0.715400    1.879700   -0.750700
H     -1.033900    1.415400    0.934100
H     -0.472500   -0.619200   -0.439400
H      1.036100    0.130600   -0.948100
H      1.707400   -0.020500    1.446000
H      1.920900   -1.601800    3.011000
H      2.440900   -3.997000    3.263700
H      0.711000   -3.745700    3.609300
H      1.217600   -4.292600    2.002600
