16
gdb_10156
C     -0.046400    1.412800    0.012800
O     -0.001800    0.003400   -0.001200
C      0.718300   -0.516000   -1.091100
C      0.653500   -2.048100   -0.988900
C     -0.815000   -2.503900   -1.020800
O     -1.320100   -3.214800   -0.199500
C      1.361000   -2.674700   -2.098400
C      1.904000   -3.184700   -3.041800
H      0.961600    1.849300    0.085200
H     -0.532000    1.813100   -0.890500
H     -0.625900    1.709900    0.889300
H      0.280900   -0.188400   -2.049400
H      1.768400   -0.185800   -1.079500
H      1.070400   -2.366500   -0.027800
H     -1.376400   -2.123000   -1.903300
H      2.399100   -3.645600   -3.860800
