15
gdb_5557
N      0.446600    2.003200   -0.892100
H      0.776600    1.426400   -1.661200
H      1.107900    1.872600   -0.126000
H      0.547200    2.966300   -1.200700
C     -1.214800    0.943800    1.821000
C     -0.320200    0.787200    2.789700
C      1.167500    1.012700    2.776800
O      1.842400    1.394600    1.836000
C      1.577300    0.666200    4.137800
C      0.460900    0.303200    4.795900
O     -0.679900    0.352600    4.063300
H     -0.894900    1.285400    0.838400
H     -2.263700    0.734600    1.998200
H      2.581800    0.699100    4.526800
H      0.317000   -0.023800    5.816900
