18
gdb_12315
C      0.012600    1.510400    0.052200
C      0.004600    0.008300   -0.016900
C     -0.044000   -0.681400   -1.168700
C     -0.018400   -2.180600   -1.272300
C      0.544400   -2.833800   -0.005200
C     -0.104500   -2.228600    1.243200
C      0.033400   -0.711600    1.287200
O      0.120800   -0.107800    2.339000
H      0.911100    1.869800    0.564000
H     -0.025800    1.953500   -0.946200
H     -0.836500    1.879000    0.637000
H     -0.109000   -0.130600   -2.106200
H     -1.041200   -2.543200   -1.463000
H      0.563400   -2.477800   -2.152900
H      0.394400   -3.917900   -0.030600
H      1.627400   -2.663000    0.032600
H     -1.181500   -2.453800    1.246300
H      0.306900   -2.634100    2.170900
