19
gdb_13813
C     -0.108500    1.463500   -0.310700
C      0.043800    0.027800    0.191100
O      0.734900   -0.030100    1.436500
C     -1.301000   -0.670000    0.281100
N     -1.791100   -1.346100   -0.933300
C     -1.485500   -2.143600    0.275700
C     -0.376100   -3.155900    0.113500
O     -0.793400   -4.230100   -0.714500
H      0.867700    1.951700   -0.371400
H     -0.573700    1.478500   -1.301100
H     -0.742600    2.048600    0.368300
H      0.675800   -0.524900   -0.509300
H      0.243800    0.502500    2.071800
H     -2.038200   -0.110700    0.861700
H     -2.793800   -1.218400   -1.035100
H     -2.340800   -2.520800    0.834500
H      0.529000   -2.677300   -0.282400
H     -0.120900   -3.592400    1.084300
H     -1.068400   -3.829500   -1.547500
