20
gdb_8191
C     -0.037000    1.559500    0.041800
C      0.071900    0.050100    0.065300
O     -1.099600   -0.576900   -0.413800
C      1.325100   -0.736900   -0.250400
C      2.580900   -0.056200    0.296300
C      1.942700   -0.063400    1.723400
C      0.694900   -0.769400    1.165800
C     -0.043300   -1.851500    1.900700
H      0.849500    2.055600    0.441900
H     -0.176100    1.916600   -0.986600
H     -0.904100    1.882100    0.627100
H     -1.155800   -0.401500   -1.359400
H      1.294700   -1.498600   -1.022700
H      3.465300   -0.695100    0.241500
H      2.837700    0.918200   -0.132700
H      2.494900   -0.705300    2.414300
H      1.785900    0.904400    2.210900
H     -0.510400   -1.453800    2.810800
H     -0.832000   -2.278500    1.278900
H      0.636300   -2.655500    2.206200
