16
gdb_11013
C      0.015600    1.502500   -0.057100
C     -0.025200    0.003000    0.067900
C     -1.305000   -0.742300   -0.282700
O     -1.240700   -2.004700    0.400500
C     -0.295800   -1.957800    1.402200
N     -0.210100   -2.783500    2.352400
C      0.600400   -0.796300    1.163200
N      1.208800   -0.736400   -0.185000
H      0.992600    1.879000    0.253200
H     -0.147400    1.811300   -1.095900
H     -0.756400    1.971100    0.561800
H     -2.188600   -0.189600    0.060400
H     -1.411700   -0.941200   -1.354800
H     -0.968700   -3.466100    2.304100
H      1.182700   -0.397400    1.983700
H      1.034300   -1.602400   -0.692800
