15
gdb_15646
C      0.058300    1.409900    0.059400
O     -0.176300    0.029700   -0.111200
C      0.594900   -0.551500   -1.136500
C      2.045900   -0.844100   -0.818100
C      2.257900   -2.152300   -0.984500
N      1.092400   -2.825400   -1.383300
C      0.011800   -1.963100   -1.438100
O     -1.131500   -2.256300   -1.675700
H      1.085900    1.621900    0.389700
H     -0.130100    1.969100   -0.870400
H     -0.634700    1.757800    0.828700
H      0.507600    0.048600   -2.060200
H      2.789300   -0.111000   -0.546800
H      3.174800   -2.714700   -0.874300
H      0.989100   -3.824000   -1.452600
