16
gdb_9436
C     -0.254500    1.631000    0.121900
C      0.002300    0.127300   -0.024000
C      0.872700   -0.347200   -1.251400
C      1.845500   -1.110300   -0.305600
C      1.164800   -0.419900    0.879500
O      1.445200   -0.239700    2.024700
C     -1.205600   -0.661100    0.149300
C     -2.194300   -1.329300    0.301200
H      0.676100    2.193100   -0.003400
H     -0.973700    1.973500   -0.627400
H     -0.656500    1.849400    1.114300
H      0.343600   -0.952900   -1.985600
H      1.346700    0.499500   -1.752400
H      1.670100   -2.190700   -0.287000
H      2.918700   -0.934100   -0.408400
H     -3.071100   -1.912600    0.438100
