14
gdb_20770
C      0.084000    1.470600    0.058400
C     -0.009600   -0.024800    0.022300
N     -0.112200   -0.550000   -1.151200
O     -0.203400   -1.946000   -1.244900
C     -0.182400   -2.694600   -0.131000
C     -0.077700   -2.206000    1.114300
C      0.021200   -0.774600    1.299700
N      0.127800   -0.108300    2.394500
H      1.011000    1.771100    0.555200
H      0.047800    1.876900   -0.952700
H     -0.733400    1.877800    0.660500
H     -0.261900   -3.747000   -0.380800
H     -0.067900   -2.879200    1.963300
H      0.137100   -0.742200    3.197000
