18
gdb_6389
C      0.012000    1.571600    0.054200
C     -0.027600    0.037600    0.004100
C     -1.452700   -0.508900   -0.005000
O     -2.060600   -0.104100   -1.229400
N      0.665300   -0.502900   -1.160200
C      2.037600   -0.548300   -1.195700
N      2.561300   -0.881400   -2.442800
O      2.744300   -0.306000   -0.232600
H      1.049700    1.911500    0.049700
H     -0.512500    2.001000   -0.803800
H     -0.467100    1.940100    0.967700
H      0.486800   -0.356900    0.885000
H     -1.424000   -1.605200    0.073700
H     -2.002200   -0.113000    0.861800
H     -2.934300   -0.500500   -1.283400
H      0.155500   -0.426000   -2.027600
H      2.010100   -1.492100   -3.027600
H      3.534300   -1.142500   -2.387000
