11
gdb_11200
O     -0.097800    0.027200   -0.001100
C      0.019300    1.221100    0.006200
C      1.351800    1.911100   -0.002800
N      2.497000    1.361600   -0.019400
C      3.451000    2.463100   -0.020900
C      2.611100    3.736600   -0.002500
O      2.898800    4.887700    0.004300
O      1.283800    3.287500    0.008900
H     -0.841300    1.918400    0.020600
H      4.110500    2.417600    0.852500
H      4.092300    2.431100   -0.908400
