15
gdb_6263
C     -0.175600    1.520900    0.054900
C      0.014000    0.014200    0.002400
C      0.739800   -0.561500    1.211400
O     -1.339400   -0.552300   -0.061100
C     -1.466500   -1.744000   -0.632300
O     -0.600600   -2.429600   -1.106600
C     -2.879600   -2.153000   -0.623500
N     -3.972900   -2.524000   -0.642100
H      0.800500    2.014100    0.069500
H     -0.728800    1.875800   -0.818200
H     -0.723400    1.812600    0.955800
H      0.524800   -0.284100   -0.916900
H      0.199800   -0.326700    2.133600
H      0.843700   -1.645200    1.123900
H      1.741700   -0.127300    1.278300
