19
gdb_8295
C     -0.013700    1.583200    0.067900
C      0.105400    0.057200    0.035000
C      0.588500   -0.478500   -1.317800
C      0.699300   -1.997100   -1.365700
C      1.419600   -2.626300   -2.596300
C      2.428700   -3.206300   -1.574500
O      3.392900   -3.921400   -1.615000
N      1.770400   -2.583800   -0.540100
H      0.951300    2.059400   -0.137400
H     -0.724900    1.940800   -0.684800
H     -0.357700    1.935200    1.045200
H      0.799200   -0.269900    0.820800
H     -0.866300   -0.393400    0.277300
H     -0.104900   -0.158900   -2.107600
H      1.567100   -0.043800   -1.560200
H     -0.277900   -2.455200   -1.164500
H      0.854900   -3.384100   -3.141900
H      1.848900   -1.909200   -3.298900
H      1.882900   -2.670300    0.459300
