18
gdb_16575
C     -0.016200    1.556300   -0.036900
O      1.354900    1.984300   -0.038300
C      2.180100    0.822900    0.056400
C      1.368400   -0.260000   -0.661300
C      0.023900    0.017100    0.034400
C      0.147400   -0.449300    1.494800
O      1.123400    0.301600    2.201000
C      2.368400    0.430800    1.530800
H     -0.536000    2.000100    0.819400
H     -0.497300    1.906000   -0.959600
H      3.146200    1.052600   -0.402900
H      1.325900   -0.069500   -1.737700
H      1.741700   -1.274100   -0.494900
H     -0.837300   -0.454000   -0.446200
H     -0.789000   -0.297300    2.041300
H      0.383900   -1.526900    1.521600
H      2.953900   -0.503400    1.590500
H      2.912500    1.212900    2.067600
