14
gdb_8262
O     -0.503600    0.134000   -0.211000
C     -0.263600    1.299100   -0.131300
O      0.972900    1.771200    0.133000
C      1.166700    3.176700    0.209800
C      1.891200    3.650800    1.499600
C      2.880500    4.403600    0.592000
O      3.699800    5.251500    0.781700
C      2.333500    3.708100   -0.667300
H     -1.010600    2.106400   -0.262100
H      0.221700    3.698700    0.030800
H      1.329800    4.242600    2.225600
H      2.373300    2.812600    2.013700
H      2.987000    2.892200   -0.993500
H      2.095100    4.341800   -1.524200
