17
gdb_12398
C     -0.061100    1.457200    0.038700
N      0.015200    0.009400   -0.051900
C     -1.238900   -0.728700    0.026600
C     -1.048100   -2.170700   -0.421100
O      0.022300   -2.757700    0.287100
C      1.244200   -2.131600   -0.048100
C      1.238600   -0.601500   -0.044500
O      2.298000    0.001600   -0.069200
H      0.952200    1.853400   -0.008100
H     -0.654200    1.862900   -0.789400
H     -0.530500    1.765700    0.981900
H     -1.630400   -0.706200    1.054700
H     -1.980400   -0.236000   -0.616000
H     -1.944200   -2.757200   -0.202200
H     -0.864100   -2.210100   -1.507700
H      1.990700   -2.455400    0.679900
H      1.591100   -2.449100   -1.045700
