18
gdb_19398
C     -0.061400    1.582500   -0.080600
C      0.041500    0.067800    0.019700
C      1.056000   -0.661800   -0.886500
N      2.406100   -0.200900   -0.480900
C      1.731400   -1.284700    0.285200
C      0.783600   -0.575100    1.228700
C      1.008500   -0.050600    2.587600
N      0.152200   -1.240600    2.360800
H      0.934200    2.031300   -0.044000
H     -0.542700    1.882200   -1.018100
H     -0.657800    1.995500    0.740700
H     -0.944000   -0.403300   -0.081600
H      0.878000   -1.061200   -1.877200
H      3.073400   -0.651700   -1.106800
H      2.177600   -2.263600    0.406700
H      1.942000   -0.250400    3.106300
H      0.531700    0.888500    2.858100
H     -0.829500   -0.977700    2.419100
