18
gdb_8480
C     -0.042600    1.547000    0.084600
C     -0.035700    0.047000    0.086600
C      1.166200   -0.773200   -0.359300
C      0.633700   -1.001100    1.010000
O      1.428500   -0.897700    2.129100
C     -0.629100   -1.859600    0.995000
O     -1.241200   -1.899500    2.279300
C     -1.277300   -0.858400   -0.010900
H      0.922700    1.939900    0.420300
H     -0.234200    1.951500   -0.917300
H     -0.814800    1.946800    0.752900
H      1.082800   -1.527200   -1.142200
H      2.101200   -0.219800   -0.374000
H      0.846600   -1.098500    2.875600
H     -0.522500   -2.904300    0.684400
H     -1.649500   -1.041700    2.442500
H     -2.185000   -0.410100    0.409400
H     -1.519600   -1.251600   -1.004700
