21
gdb_15086
C      0.189400    0.938400    0.861800
C      0.086600   -0.418700    0.163900
C      0.562000   -0.391300   -1.294300
O      1.944000   -0.035500   -1.315600
C      2.279500    1.012900   -2.200400
C      0.358700   -1.743600   -1.963200
C      1.235200   -2.219600   -3.057800
N      1.319700   -2.828900   -1.715700
H      1.222500    1.296700    0.856300
H     -0.433300    1.691100    0.364400
H     -0.140000    0.871900    1.902900
H      0.681100   -1.165700    0.703200
H     -0.950200   -0.776600    0.179700
H     -0.021000    0.366100   -1.841700
H      2.009100    0.782300   -3.240800
H      1.790400    1.955800   -1.916000
H      3.362800    1.148400   -2.141700
H     -0.679400   -2.073200   -1.960600
H      0.831400   -2.865700   -3.832400
H      2.053600   -1.581200   -3.374600
H      2.127800   -2.422200   -1.245800
