18
gdb_10744
C      0.157200    1.415500    0.089900
C     -0.042100   -0.104700    0.008200
O      0.574700   -0.641600    1.185200
C     -1.475300   -0.438300   -0.000200
C     -2.639200   -0.740200   -0.002400
C      0.615300   -0.660100   -1.261800
C      2.098800   -0.907200   -1.299500
C      1.135100   -2.069700   -1.324400
H      1.227000    1.631600    0.149100
H     -0.255700    1.906100   -0.795100
H     -0.336200    1.812800    0.979400
H      0.171100   -1.497300    1.362600
H     -3.669500   -0.998700   -0.003200
H      0.159100   -0.277600   -2.170100
H      2.640400   -0.655300   -2.204300
H      2.647000   -0.752100   -0.377600
H      1.079500   -2.677800   -0.428100
H      1.000700   -2.623500   -2.246600
