14
gdb_4443
N      0.150100    1.441000    0.080400
C      0.011500    0.052700    0.003700
C     -1.092400   -0.726400    0.015600
N     -2.432300   -0.312400    0.009600
N     -0.633700   -2.071800   -0.012800
C      0.747600   -2.128900    0.005000
O      1.473400   -3.102700    0.053700
N      1.125300   -0.783500   -0.043900
H      0.637700    1.825600   -0.724200
H     -0.771600    1.862200    0.129400
H     -2.944600   -0.591400    0.841000
H     -2.948000   -0.638900   -0.802300
H     -1.194800   -2.891500    0.138500
H      2.072000   -0.498400    0.139200
