17
gdb_10099
C     -0.224900    1.481700    0.354300
C     -0.118500   -0.027300    0.131100
C      0.697000   -0.402900   -1.128200
N      2.077800    0.080100   -1.064000
C      2.540200    1.084500   -1.857500
O      1.863600    1.738800   -2.621800
C      0.679100   -1.848600   -1.355900
C      0.669000   -3.041600   -1.500500
H      0.760100    1.931700    0.506900
H     -0.686400    1.979300   -0.504200
H     -0.832400    1.695600    1.238500
H      0.337400   -0.514400    1.001600
H     -1.115300   -0.467400    0.018100
H      0.261700    0.110900   -1.992900
H      2.739600   -0.451000   -0.519500
H      3.626300    1.250100   -1.716300
H      0.652500   -4.092800   -1.651900
