19
gdb_2148
C     -0.683800    1.318600   -0.044500
C      0.091300    0.002100   -0.044400
C      1.259300   -0.060700   -1.064100
C      2.213400   -1.040600   -0.424300
C      1.910700   -1.261600    0.853800
C      0.724200   -0.441000    1.316000
C      1.172100    0.702800    2.244700
H     -0.041300    2.169500    0.204700
H     -1.115200    1.511800   -1.032600
H     -1.508900    1.300900    0.676100
H     -0.605100   -0.798400   -0.324000
H      0.920200   -0.371400   -2.059300
H      1.738100    0.921200   -1.199000
H      3.054200   -1.475000   -0.954500
H      2.471500   -1.899100    1.530000
H      0.007000   -1.055900    1.875600
H      1.879200    1.372100    1.743200
H      0.321600    1.299800    2.588700
H      1.674700    0.300200    3.130500
