20
gdb_5868
C     -0.059900    1.567600    0.072200
C      0.035900    0.033800    0.046100
C      0.714100   -0.496600    1.319300
C     -1.359800   -0.579700   -0.103100
O      0.719600   -0.424100   -1.136200
C      2.065200   -0.024900   -1.311100
C      2.570600   -0.589000   -2.558100
C      3.014000   -1.039600   -3.579000
H      0.913300    2.040900    0.233600
H     -0.474200    1.938700   -0.869900
H     -0.715700    1.890000    0.886700
H      0.096400   -0.275200    2.195000
H      0.845300   -1.580800    1.256600
H      1.692800   -0.037800    1.489300
H     -1.831000   -0.226800   -1.024500
H     -1.289900   -1.669700   -0.152900
H     -1.997000   -0.307300    0.743300
H      2.160800    1.071200   -1.351100
H      2.701200   -0.368700   -0.480700
H      3.400100   -1.441100   -4.483000
