19
gdb_16152
C      0.268300    1.478500    0.238200
C     -0.161700    0.046400   -0.103900
C      0.512700   -0.485200   -1.347800
C      0.167800    0.122300   -2.715800
C      0.379100   -1.019400   -3.688000
C      0.701100   -2.152900   -3.057500
C      0.828800   -1.930600   -1.587400
N      1.886800   -0.977300   -1.162200
H      1.353000    1.527100    0.375300
H     -0.003700    2.181500   -0.556700
H     -0.207000    1.823400    1.161400
H      0.084200   -0.616400    0.732400
H     -1.250400    0.002800   -0.238300
H     -0.872700    0.475500   -2.735500
H      0.789800    0.995200   -2.953700
H      0.297100   -0.895000   -4.761900
H      0.887400   -3.111100   -3.528500
H      0.610800   -2.721400   -0.876300
H      2.467400   -0.748000   -1.967400
