17
gdb_9726
C      0.246600    1.421200    0.000900
C     -0.124400   -0.075100   -0.010600
C      0.541800   -0.819500   -1.216900
C      1.710400   -1.600400   -0.564300
O      1.845400   -1.085400    0.754900
C      0.536100   -0.806400    1.196200
C     -1.578000   -0.235600   -0.000100
N     -2.727100   -0.362200    0.023300
H      1.333700    1.515500    0.069700
H     -0.093000    1.916700   -0.912400
H     -0.204700    1.931400    0.856200
H     -0.161400   -1.489800   -1.713600
H      0.891500   -0.095600   -1.955800
H      1.483300   -2.676400   -0.530600
H      2.666300   -1.465000   -1.075000
H      0.594800   -0.184200    2.091800
H     -0.016100   -1.728900    1.433900
