20
gdb_8066
C     -0.068100    1.568500   -0.003500
C     -0.192200    0.041300   -0.076000
C      0.623500   -0.551500   -1.217100
C      2.176600   -0.756300   -1.135900
C      1.936800   -1.974800   -0.198700
C      0.879000   -2.077700   -1.345200
O     -0.145500   -2.994900   -1.494200
C      2.033700   -1.732800   -2.338600
H      0.965600    1.874400    0.190500
H     -0.378700    2.036200   -0.944500
H     -0.693300    1.980500    0.794700
H      0.090900   -0.391800    0.888600
H     -1.243600   -0.232200   -0.231300
H      0.307600   -0.095800   -2.164500
H      2.936700    0.012500   -1.018600
H      2.722200   -2.736800   -0.194600
H      1.576000   -1.780100    0.811400
H      0.237400   -3.877500   -1.541700
H      1.741200   -1.296500   -3.297400
H      2.825300   -2.479200   -2.452600
