17
gdb_12695
C     -0.020000    1.407000   -0.060300
N      0.002500   -0.036400   -0.081800
C     -1.203000   -0.855900   -0.036300
C     -0.698700   -2.259100   -0.441000
C      0.763700   -2.246900    0.010600
O      1.614200   -3.049900   -0.764600
C      1.146800   -0.768800   -0.104100
O      2.290300   -0.362700   -0.211800
H      1.011400    1.755900   -0.137800
H     -0.600000    1.803000   -0.902500
H     -0.460800    1.786200    0.870300
H     -1.644700   -0.851500    0.971000
H     -1.958300   -0.464800   -0.726800
H     -1.293100   -3.061000   -0.000400
H     -0.716800   -2.369400   -1.529300
H      0.832700   -2.518900    1.079400
H      2.450100   -2.561900   -0.811800
