20
gdb_11830
C     -0.754700    1.194600   -0.078100
C      0.160700   -0.019000   -0.013000
C      1.543300    0.051300   -0.734300
C      2.136600   -0.678400    0.468800
C      3.010800   -1.851000    0.496600
O      3.475300   -0.558800    0.917100
C      0.898500   -0.382700    1.329100
C      1.111800    0.754400    2.326500
H     -0.246900    2.106100    0.252500
H     -1.097800    1.363500   -1.104900
H     -1.643200    1.060900    0.549000
H     -0.385400   -0.901400   -0.362600
H      1.634500   -0.419900   -1.716000
H      1.919400    1.077800   -0.801200
H      2.905600   -2.589600    1.291000
H      3.450200   -2.224400   -0.428200
H      0.481700   -1.251300    1.849400
H      1.544600    1.640200    1.851000
H      0.169400    1.049300    2.798600
H      1.804600    0.439600    3.112400
