14
gdb_21302
C      0.014500    1.345900    0.006300
O     -0.008400   -0.083600    0.035300
C     -1.224500   -0.643300    0.031700
N     -2.350100    0.026900    0.002300
O     -3.346100   -0.943400   -0.001400
C     -2.768200   -2.169700    0.030000
C     -1.415000   -2.061300    0.050600
N     -0.395400   -3.011800    0.150600
H      1.067400    1.628900    0.012600
H     -0.477400    1.721400   -0.896300
H     -0.496600    1.756400    0.882400
H     -3.444300   -3.009400    0.032400
H     -0.602800   -3.880800   -0.322900
H      0.489200   -2.644100   -0.175400
