14
gdb_2918
C     -0.042500    1.439400    0.071500
N     -0.011000   -0.009300    0.163800
C     -1.085400   -0.666800    0.075200
O     -2.346800   -0.130400   -0.108900
C     -3.310000   -1.182800   -0.160300
C     -2.514100   -2.444700    0.012300
C     -1.227400   -2.125700    0.147300
H      0.601700    1.758900   -0.756400
H     -1.041000    1.865700   -0.076100
H      0.389600    1.865400    0.985000
H     -4.052100   -1.033700    0.636400
H     -3.841100   -1.141100   -1.121400
H     -2.959300   -3.430400    0.019100
H     -0.378800   -2.777900    0.288900
