19
gdb_4012
C      1.824600   -0.308600    0.590400
C      0.418600   -0.217200   -0.031100
C      0.431600   -0.322300   -1.535900
C      0.064300   -1.635800   -2.187400
O      0.917200   -2.696400   -1.786700
C      2.171900   -2.679200   -2.438300
N      0.736500    0.623900   -2.341200
O      1.052300    1.813100   -1.664300
H      2.282700   -1.276300    0.370000
H      2.469200    0.482600    0.200500
H      1.767300   -0.199900    1.677700
H     -0.210800   -1.016300    0.372500
H     -0.034300    0.740700    0.243500
H     -0.941100   -1.933100   -1.866100
H      0.061700   -1.512100   -3.278900
H      2.058400   -2.785000   -3.527900
H      2.732400   -1.755300   -2.240100
H      2.740900   -3.530000   -2.055800
H      1.224400    2.420100   -2.391800
