19
gdb_17967
C     -0.003200    1.479900   -0.048300
C      1.372900    2.174500    0.028900
C      1.843400    2.501700    1.448400
O      1.698100    1.396100    2.346300
C      2.381300    0.271400    1.968800
N      1.843500   -0.772200    1.517500
C      0.391300   -0.750800    1.306800
C     -0.011100   -0.062400   -0.011400
H     -0.653700    1.868000    0.746300
H     -0.475900    1.773200   -0.993000
H      2.124900    1.560000   -0.480700
H      1.340200    3.126100   -0.515800
H      2.887900    2.848800    1.438100
H      1.229200    3.293200    1.887200
H      3.465000    0.326600    2.107100
H      0.063000   -1.793600    1.264200
H     -0.128200   -0.270200    2.144800
H     -1.030200   -0.391400   -0.249400
H      0.630100   -0.448600   -0.814200
