19
gdb_1568
C      0.006900    1.546400    0.096200
C     -0.008500    0.020400   -0.014800
C      0.714400   -0.502400   -1.262600
O      2.071100   -0.052400   -1.307700
C      0.627300   -2.026700   -1.387200
C      1.277700   -2.562800   -2.656000
O      1.155300   -3.978800   -2.641400
H      1.032600    1.923700    0.072800
H     -0.533500    2.006700   -0.738500
H     -0.464800    1.881900    1.024600
H      0.463200   -0.425800    0.873400
H     -1.041700   -0.348400   -0.025800
H      0.256100   -0.044900   -2.150300
H      2.523400   -0.426700   -0.542700
H      1.109500   -2.496200   -0.518200
H     -0.423200   -2.339900   -1.366100
H      0.777900   -2.128900   -3.538100
H      2.329400   -2.246600   -2.690100
H      1.605800   -4.324700   -3.417200
