16
gdb_8541
O      0.243800    1.412000   -0.191300
C      0.105000    0.021600   -0.056500
C      0.072700   -0.628700    1.343800
C     -1.450500   -0.305100    1.545200
C     -1.812000   -1.765500    1.890200
C     -0.744800   -1.857600    0.781500
O     -0.246500   -2.968600    0.130200
C     -1.298600   -0.622000    0.010700
H     -0.355800    1.839600    0.429600
H      0.797600   -0.424800   -0.773900
H      0.833100   -0.655900    2.126900
H     -1.865300    0.601000    1.981200
H     -1.528500   -2.118100    2.887900
H     -2.821700   -2.098900    1.630300
H      0.229800   -3.510500    0.768700
H     -2.103900   -0.638300   -0.725100
