12
gdb_3675
C     -0.023400    1.513700    0.029900
C     -0.000000    0.012900    0.015600
C      0.065900   -0.724200   -1.179000
N      0.086900   -2.049000   -1.201200
N      0.043500   -2.704200   -0.038200
C     -0.018600   -1.977400    1.073100
N     -0.043200   -0.642300    1.171300
H      0.874100    1.921700   -0.447500
H     -0.885700    1.895100   -0.527700
H     -0.075700    1.872400    1.058400
H      0.102900   -0.232100   -2.147300
H     -0.052400   -2.541200    2.001600
