19
gdb_12786
C     -0.216300    1.343000    0.108900
O      0.369600    0.081200   -0.113300
C      0.769200   -0.557500    1.063300
C     -0.304000   -1.210600    2.018500
C      0.452800   -2.529400    1.844300
N      0.349200   -2.842900    0.398100
C      1.419200   -1.929200    0.874000
C      2.866100   -2.191200    0.591500
H      0.475000    2.029100    0.625200
H     -0.465300    1.763200   -0.868500
H     -1.137200    1.270600    0.706900
H      1.436100    0.096300    1.649600
H     -0.289700   -0.798200    3.029300
H     -1.324200   -1.229900    1.628300
H      0.612800   -3.311000    2.577100
H      0.796500   -3.749200    0.254700
H      3.109500   -1.964500   -0.452800
H      3.510700   -1.573900    1.226600
H      3.120100   -3.241100    0.775400
