15
gdb_21522
N     -0.322600    1.188100   -0.488100
C     -0.191000   -0.145500   -0.121400
C     -1.156600   -1.037100    0.332300
C     -2.612700   -0.735700    0.475100
O     -3.135300   -0.022300   -0.657600
C     -0.426400   -2.217800    0.606100
N      0.869400   -2.093700    0.358200
N      0.988400   -0.809600   -0.087300
H      0.305300    1.484700   -1.224200
H     -1.285800    1.385000   -0.738200
H     -3.177300   -1.662300    0.652200
H     -2.814300   -0.071600    1.324100
H     -2.959700   -0.568700   -1.432000
H     -0.809900   -3.158200    0.978100
H      1.899400   -0.461200   -0.332000
