17
gdb_17081
C     -0.034900    1.433800    0.034600
C      1.357300    0.863700    0.016000
C      0.164400   -0.064800    0.035600
N     -0.098500   -0.747100    1.261400
C     -0.571400   -1.904400    1.242600
C     -0.972500   -2.919200    2.290800
C     -1.341800   -3.784900    1.068300
O     -0.917600   -2.717900    0.168800
H     -0.385200    1.873500    0.960800
H     -0.425300    1.891500   -0.867400
H      1.935800    0.924700   -0.899100
H      1.936500    0.922800    0.929700
H     -0.064300   -0.593100   -0.886800
H     -0.153400   -3.289300    2.909900
H     -1.802600   -2.615600    2.931200
H     -0.743900   -4.686700    0.915200
H     -2.403300   -4.008900    0.936600
