22
gdb_18397
C     -0.035100    1.552300    0.041100
C      1.284900    0.818200    0.025100
C      2.209800    0.790100    1.228500
C      2.801900   -0.606500    1.497500
C      1.855600   -1.577000    2.227000
C      0.546700   -1.958500    1.512500
C     -0.408800   -0.779800    1.246000
C     -0.009500    0.042100    0.033700
H     -0.323900    2.044300    0.965600
H     -0.354300    2.074900   -0.854400
H      1.813600    0.822600   -0.925400
H      3.022200    1.509300    1.066600
H      1.681200    1.136300    2.125600
H      3.126200   -1.049500    0.545900
H      3.707800   -0.500400    2.107400
H      2.409800   -2.498800    2.444800
H      1.601900   -1.142900    3.205200
H      0.775300   -2.459000    0.561500
H      0.032300   -2.704000    2.131900
H     -1.427400   -1.158400    1.096300
H     -0.456300   -0.145200    2.139800
H     -0.271900   -0.427700   -0.911600
