14
gdb_2476
O      0.032100    0.050300   -0.042900
C      0.027800    1.249700   -0.002900
C     -1.168700    2.234100    0.033500
N     -0.461300    3.545400    0.075000
C      0.619300    3.298600   -0.964000
C      1.187700    2.238800    0.026400
C      0.625600    3.230200    1.088600
H     -1.799500    2.151500   -0.855900
H     -1.794000    2.092400    0.919400
H      0.259600    2.974800   -1.944600
H      1.253900    4.181600   -1.065200
H      2.197700    1.833900    0.009800
H      1.261100    4.104700    1.244400
H      0.271900    2.841900    2.047700
