8
gdb_114
O     -0.299400   -0.006000    0.004200
C     -0.102200    1.175400    0.008300
N      1.144800    1.803900    0.000400
C      2.408300    1.209600   -0.014000
O      2.637500    0.033900   -0.022100
H     -0.911100    1.934100    0.019300
H      1.131100    2.814400    0.005700
H      3.196400    1.990000   -0.016800
