12
gdb_9992
O      0.030100   -0.023900   -0.140100
C      0.065000    1.166300   -0.152000
O      1.117000    1.865400    0.332600
C      1.046200    3.307800    0.264300
C      1.086000    3.861600    1.617100
C      1.098200    4.326800    2.722800
C      2.132400    3.809100   -0.576600
C      3.007600    4.231200   -1.280300
H     -0.738300    1.816900   -0.550400
H      0.086800    3.585500   -0.200000
H      1.116700    4.734400    3.703900
H      3.788900    4.600800   -1.898500
