15
gdb_2158
C     -0.363100    1.477000    0.029800
C      0.135000    0.036000   -0.027800
C      1.032600   -0.350600   -1.210200
C      1.873600   -1.488600   -0.616300
O      1.979600   -1.198800    0.788900
C      1.003400   -0.333700    1.177900
O      0.891900    0.041000    2.309200
H      0.470700    2.181600   -0.053600
H     -1.066200    1.683400   -0.782200
H     -0.863000    1.662100    0.983600
H     -0.726900   -0.646100    0.011400
H      0.483800   -0.658900   -2.102400
H      1.676000    0.493500   -1.482300
H      1.387800   -2.464700   -0.735800
H      2.886100   -1.551100   -1.020000
