20
gdb_10234
C      0.191000    1.100400   -0.139900
O      0.053900   -0.291700    0.026000
C     -1.280900   -0.731900   -0.113300
C     -1.342400   -2.246000    0.052700
C     -2.784400   -2.733100    0.230300
O     -2.840300   -4.140400    0.279600
O     -0.851900   -2.939300   -1.089700
C      0.554900   -3.107800   -1.144300
H      1.247800    1.343600   -0.007000
H     -0.127200    1.426400   -1.142400
H     -0.399000    1.657500    0.604900
H     -1.921500   -0.250200    0.646900
H     -1.679200   -0.461400   -1.104800
H     -0.753500   -2.531700    0.937800
H     -3.192200   -2.353300    1.172500
H     -3.403300   -2.332700   -0.590900
H     -2.273600   -4.433900   -0.445800
H      0.927600   -3.633400   -0.252500
H      0.764700   -3.717200   -2.027200
H      1.074200   -2.148100   -1.225600
