15
gdb_3035
N     -0.041500   -1.132600   -0.037700
C     -0.008000    0.021300   -0.089500
C      0.063700    1.479100   -0.148000
C      1.446900    2.021200    0.277700
C      1.500800    3.529400    0.205000
C      2.772400    4.228900   -0.095100
N      1.680900    4.213300   -1.087700
H     -0.172700    1.802000   -1.168200
H     -0.717900    1.894100    0.498800
H      1.662600    1.686000    1.298600
H      2.220800    1.588000   -0.366700
H      0.785200    4.036600    0.851400
H      2.978800    5.200200    0.344500
H      3.653800    3.620100   -0.281100
H      1.894500    3.530800   -1.812600
