13
gdb_21703
N     -0.139700    1.481500   -0.062900
C      0.021700    0.143400   -0.005900
N     -0.955000   -0.714900   -0.007800
H     -1.918800   -0.384300   -0.012600
C     -0.923700   -2.111600   -0.005500
C      0.089300   -3.064100   -0.026000
N     -0.527200   -4.254200   -0.005600
N     -1.858600   -4.027600    0.024900
N     -2.120700   -2.732800    0.025300
H      0.652100    2.074800    0.113300
H     -1.049800    1.903100    0.033500
H      1.034600   -0.239100    0.006900
H      1.164600   -2.969000   -0.055700
