18
gdb_9630
C      0.189100    1.293500    0.226700
O     -0.240700    0.033800   -0.257600
C      0.568200   -0.515600   -1.260900
C      0.445800    0.143100   -2.618200
C      1.857200   -1.135100   -0.826400
C      0.670800   -2.030700   -1.207300
C     -0.005500   -2.792600   -0.129300
O     -0.475200   -3.894500   -0.280100
H      1.227300    1.258000    0.585300
H      0.109100    2.080400   -0.535100
H     -0.468000    1.548000    1.061100
H      0.806900    1.176500   -2.594600
H      1.034700   -0.395800   -3.365100
H     -0.599700    0.151400   -2.940700
H      2.712900   -1.130400   -1.492100
H      2.098200   -1.089500    0.230700
H      0.715800   -2.554900   -2.155700
H     -0.045100   -2.273600    0.851000
