15
gdb_11930
C      0.034600    1.543900    0.002100
C     -0.087900    0.062500    0.127000
C     -1.336400   -0.827000   -0.030000
C     -0.707600   -1.843000    0.983900
C      0.510500   -0.911200    1.083300
O      1.032100   -0.748300   -0.244200
C      1.395400   -0.712800    2.187900
N      2.079600   -0.560700    3.108300
H      1.009700    1.878200    0.364700
H     -0.065400    1.845300   -1.046500
H     -0.750000    2.046800    0.575200
H     -2.246600   -0.361600    0.354100
H     -1.507800   -1.188300   -1.045900
H     -1.268400   -1.913300    1.917200
H     -0.477800   -2.842400    0.611000
