15
gdb_14258
O     -0.096100    1.438700   -0.059000
C     -0.011700    0.038400    0.042100
C      0.270500   -0.602600    1.438700
C     -1.099900   -1.350400    1.363400
C     -1.406500   -0.636700    0.002700
N     -2.465200    0.095700    0.693100
C     -2.215800   -0.456500    1.941000
O     -2.671400   -0.236100    3.029300
H      0.782900    1.810000    0.066500
H      0.648200   -0.384000   -0.729000
H      1.138400   -1.264900    1.449600
H      0.351300    0.104700    2.267100
H     -1.130900   -2.424800    1.525600
H     -1.716600   -1.139000   -0.913900
H     -2.804700    1.026600    0.490800
