22
gdb_6617
C     -1.514400   -0.259900   -0.187000
C     -0.022000    0.006000    0.026900
C      0.246800    1.507400    0.200000
O      0.305600   -0.685400    1.240500
C      0.791600   -0.554200   -1.151900
C      2.346400   -0.598400   -1.066600
C      2.305800   -1.979300   -1.773800
C      0.805600   -2.089700   -1.393700
H     -1.869500    0.225500   -1.100900
H     -1.703100   -1.333700   -0.268200
H     -2.091400    0.123400    0.659300
H     -0.304800    1.893900    1.062100
H      1.314200    1.698400    0.362800
H     -0.057400    2.071600   -0.687500
H      1.191500   -0.416100    1.503800
H      0.489900   -0.027700   -2.065000
H      2.909900    0.207700   -1.542700
H      2.694500   -0.697800   -0.032300
H      2.446400   -1.882200   -2.854300
H      2.981600   -2.755200   -1.406200
H      0.666600   -2.620400   -0.448100
H      0.118800   -2.498300   -2.138700
