19
gdb_1093
C     -0.019800    1.524500   -0.046800
C      0.016800   -0.008900    0.021400
C      0.648700   -0.465700    1.340000
O     -1.324800   -0.519200    0.058200
C      0.761200   -0.565100   -1.209900
C      0.809200   -2.085800   -1.302800
O      1.333000   -2.413900   -2.584700
H      0.987800    1.950900   -0.008100
H     -0.485600    1.861300   -0.980700
H     -0.599800    1.924800    0.789500
H      0.123100   -0.010700    2.184300
H      0.581500   -1.550600    1.451000
H      1.702000   -0.174200    1.388000
H     -1.780900   -0.198000   -0.727500
H      0.264100   -0.196100   -2.117400
H      1.782300   -0.166700   -1.237400
H      1.443200   -2.500800   -0.504700
H     -0.203900   -2.488600   -1.164200
H      1.360600   -3.372200   -2.657200
