15
gdb_2434
C      0.004200    1.423800   -0.040900
C     -0.013800   -0.064800    0.015900
O      0.910800   -0.805200   -0.791500
C      0.119400   -1.984400   -0.475600
C      0.427900   -2.237700    1.023100
C     -0.324100   -0.928200    1.257400
C     -1.100500   -1.084900   -0.053500
H      0.961800    1.813900    0.320400
H     -0.146300    1.778200   -1.065500
H     -0.790200    1.836500    0.588100
H      0.164700   -2.757800   -1.239300
H     -0.128300   -3.094400    1.413000
H      1.485900   -2.305900    1.295700
H     -0.669400   -0.499100    2.189800
H     -2.152600   -1.054500   -0.301200
