10
gdb_21442
N     -0.117100    1.318400    0.011200
C      0.012100    0.068100    0.003500
O      1.136600   -0.707300   -0.007600
N      0.719900   -2.078300   -0.013100
N     -0.517800   -2.130100   -0.005000
N     -1.032700   -0.868600    0.004700
C     -2.417400   -0.594900    0.014700
O     -3.258800   -1.442700    0.015200
H      0.779500    1.797300    0.008500
H     -2.576000    0.494000    0.021500
