18
gdb_16027
C      0.056900    1.491700    0.009500
O      1.207200    0.639000   -0.006000
C     -0.100800    0.034700    0.003200
C     -0.440000   -0.732600    1.267200
C      0.128700   -2.154600    1.164300
O     -0.322000   -2.809100   -0.009900
C      0.106200   -2.142000   -1.185500
C     -0.464200   -0.719000   -1.262200
H     -0.099200    2.048600    0.933300
H     -0.116700    2.058500   -0.905000
H     -0.029900   -0.218600    2.142100
H     -1.529600   -0.789100    1.379700
H      1.230200   -2.110100    1.175700
H     -0.196900   -2.771800    2.006100
H      1.207300   -2.097300   -1.217500
H     -0.235400   -2.750200   -2.027500
H     -1.555700   -0.774400   -1.354400
H     -0.070800   -0.195600   -2.139200
