11
gdb_1364
O     -0.126300   -0.126400    0.000800
C     -0.070500    1.078500    0.005400
C      1.240000    1.878100   -0.001500
C      2.439400    1.060600   -0.015400
C      3.436400    0.392400   -0.026900
C     -1.262800    1.910300    0.018200
C     -2.238000    2.615600    0.028700
H      1.207600    2.550900   -0.869800
H      1.221900    2.542200    0.873800
H      4.314500   -0.204600   -0.037100
H     -3.112500    3.220200    0.038100
