16
gdb_17198
O      0.184800    1.424700   -0.148000
C      0.058400    0.038700   -0.036900
C      0.045400   -0.669600    1.363000
C     -1.428900   -0.163700    1.528100
C     -1.350000   -0.648500    0.039600
C     -0.577300   -1.847500    0.603300
C     -0.121400   -3.134000    0.102100
O     -1.116700   -3.019900    1.153400
H     -0.404900    1.853500    0.480500
H      0.748300   -0.383800   -0.771100
H      0.835200   -0.693400    2.113000
H     -2.068200   -0.745700    2.192900
H     -1.578300    0.905600    1.702600
H     -2.140900   -0.648400   -0.709500
H     -0.497500   -3.521200   -0.843600
H      0.836600   -3.541400    0.421600
