18
gdb_9396
N     -0.107800    1.495200    0.149000
C      0.030100    0.044000    0.008800
C      0.723500   -0.472300   -1.277900
C     -0.030400   -0.087200   -2.552100
C      0.625700   -0.639000   -3.812200
O     -0.138100   -0.196200   -4.921800
C      0.744100   -0.478800    1.187000
N      1.333200   -0.904900    2.084800
H      0.799300    1.944100    0.058900
H     -0.697600    1.855300   -0.593800
H     -0.984100   -0.375900    0.042400
H      1.747300   -0.077400   -1.303700
H      0.811900   -1.563500   -1.209400
H     -1.063000   -0.456400   -2.508900
H     -0.088000    1.002900   -2.651900
H      1.667400   -0.283300   -3.874200
H      0.660700   -1.739400   -3.761800
H      0.260400   -0.547500   -5.723400
