14
gdb_39
C     -0.030100    1.558000    0.029800
C      0.007100    0.028300   -0.007100
C      0.713200   -0.529900   -1.247700
C      0.750400   -2.059600   -1.284600
H      0.982000    1.978500    0.028000
H     -0.555800    1.962100   -0.842700
H     -0.540800    1.926900    0.924900
H      0.509300   -0.349100    0.893600
H     -1.017300   -0.365400    0.032100
H      0.211000   -0.152500   -2.148400
H      1.737600   -0.136100   -1.286900
H      1.276200   -2.463700   -0.412100
H     -0.261700   -2.480000   -1.282700
H      1.261100   -2.428500   -2.179700
