18
gdb_15444
O      0.046400    1.321000    0.323600
C     -0.096500   -0.087800    0.403400
C     -1.326700   -0.471600   -0.414600
C     -1.534000   -1.965900   -0.436700
O     -2.024800   -2.588200    0.760600
C     -2.834400   -2.656100   -0.426600
C     -4.182600   -1.986500   -0.329800
O     -5.058500   -2.742200    0.491100
H      0.789300    1.580400    0.876100
H      0.792500   -0.604300    0.004400
H     -0.233300   -0.424500    1.441900
H     -2.196000    0.043200    0.001500
H     -1.193100   -0.110800   -1.441900
H     -0.708900   -2.519700   -0.892500
H     -2.874700   -3.655300   -0.864800
H     -4.078600   -0.957500    0.038300
H     -4.649400   -1.945100   -1.320100
H     -4.627000   -2.828700    1.348800
