13
gdb_7033
N     -0.184800    1.265700    0.430200
C     -0.038100    0.086100    0.025700
O     -1.094200   -0.783400    0.202400
C     -0.950900   -2.067200   -0.244800
O      0.038400   -2.499300   -0.772500
C     -2.204900   -2.864500    0.020400
C     -1.889200   -4.285600    0.480200
O     -2.583500   -4.893900    1.247500
H      0.660100    1.804300    0.244000
H      0.818700   -0.380500   -0.459800
H     -2.873000   -2.369200    0.724900
H     -2.732200   -2.955800   -0.940400
H     -0.971100   -4.717900    0.033600
