10
gdb_21408
N     -0.106000    1.319900    0.137100
C     -0.022100    0.068600   -0.020100
N     -1.132500   -0.746800   -0.073300
C     -1.114700   -2.113000   -0.241800
O     -2.090900   -2.800900   -0.284900
O      0.135700   -2.651000   -0.360700
N      1.347100   -1.809400   -0.308600
N      1.232800   -0.606600   -0.156100
H      0.824700    1.733800    0.148500
H     -2.041700   -0.314000    0.018400
