10
gdb_3935
O      0.109800    1.336400   -0.091400
C      0.071900    0.003100   -0.035600
C     -0.010200   -0.742600   -1.227300
N     -0.049000   -2.061000   -1.197000
N     -0.009500   -2.691000   -0.013900
C      0.067600   -1.938700    1.075900
N      0.111600   -0.600200    1.136200
H      0.165000    1.657000    0.821800
H     -0.043700   -0.259400   -2.197900
H      0.098400   -2.473900    2.020600
