16
gdb_19058
O      0.064800    1.427500   -0.038500
C      0.039700    0.011700   -0.002500
C      0.704600   -0.574200    1.280500
C     -0.496800   -0.896800    2.153800
O     -1.304200    0.336300    2.285500
C     -2.184800   -0.165600    1.270300
C     -1.555000   -1.515900    1.212400
C     -1.386100   -0.559100    0.044000
H     -0.365700    1.714600    0.777400
H      0.563100   -0.311700   -0.905900
H      1.261900   -1.492900    1.062600
H      1.388200    0.151600    1.728700
H     -0.314500   -1.351100    3.128300
H     -3.212800    0.175700    1.275400
H     -1.956100   -2.519100    1.198500
H     -1.941400   -0.729300   -0.871100
