19
gdb_12241
C      0.134600    1.617200    0.070200
C     -0.099300    0.105900   -0.026900
C      0.621900   -0.525400   -1.212400
N      2.089000   -0.584900   -1.102800
C      2.194400   -1.948500   -1.236800
O      3.134700   -2.697700   -1.259700
C      0.655200   -2.091200   -1.347800
C     -0.028400   -2.973700   -0.312000
H      1.196900    1.845500    0.210000
H     -0.201100    2.131400   -0.837300
H     -0.407300    2.047500    0.917400
H      0.229200   -0.377200    0.899500
H     -1.173200   -0.095400   -0.128600
H      0.294900   -0.036900   -2.140300
H      2.796700    0.134900   -1.117600
H      0.375100   -2.408300   -2.357300
H      0.251300   -2.700900    0.709300
H     -1.118600   -2.918200   -0.394400
H      0.269000   -4.014900   -0.467100
