15
gdb_4106
O     -0.050300    1.315600   -0.045000
N      0.026200   -0.085200   -0.006500
C     -1.130100   -0.627700    0.027400
C     -2.470300   -0.056500    0.043800
C     -3.381600   -1.040500    0.023800
C     -2.762700   -2.414200   -0.013300
C     -1.238300   -2.151700    0.007000
O     -0.641500   -2.715900   -1.149100
H      0.877700    1.572600   -0.045400
H     -2.663500    1.006500    0.057900
H     -4.455700   -0.890200    0.026000
H     -3.093900   -3.033400    0.828000
H     -3.024200   -2.956100   -0.929600
H     -0.779200   -2.568900    0.914900
H      0.210900   -2.277100   -1.256900
