12
gdb_21628
N     -0.082400    1.339100   -0.118100
C     -0.021800   -0.014800   -0.053400
N     -1.161200   -0.700300   -0.094200
C     -1.020200   -2.028900   -0.062600
O     -2.142700   -2.755900   -0.106900
N      0.107400   -2.735200    0.012300
N      1.240300   -2.031800    0.058300
C      1.205900   -0.715400    0.025600
H      0.727000    1.889400    0.110000
H     -0.986500    1.771100   -0.017900
H     -2.875100   -2.127600   -0.161100
H      2.159900   -0.198600    0.062400
