16
gdb_10930
C      0.035100    1.556000    0.027600
C     -0.038100    0.060500    0.074900
C     -1.330100   -0.775300   -0.001800
C     -0.681200   -1.816800    0.984000
C     -0.535000   -3.187500    0.513700
N     -0.403500   -4.262000    0.106200
C      0.600200   -0.948700    0.994700
N      1.110700   -0.730800   -0.346300
H      1.047800    1.893500    0.260900
H     -0.220200    1.925900   -0.972400
H     -0.661700    2.009300    0.740400
H     -2.199400   -0.291600    0.448600
H     -1.601900   -1.147200   -0.993500
H     -1.189800   -1.814900    1.951000
H      1.270300   -0.838700    1.839500
H      0.898300   -1.487500   -0.995000
