12
gdb_22
C     -0.033200    1.547800   -0.004400
C     -0.011100    0.018600    0.016800
C      0.709400   -0.536000    1.239800
O     -1.332200   -0.517100    0.052400
H      0.982200    1.957200   -0.031800
H     -0.563900    1.920900   -0.888500
H     -0.540800    1.933400    0.885800
H      0.510400   -0.337700   -0.888200
H      0.222400   -0.187900    2.156500
H      0.682400   -1.628900    1.233100
H      1.754300   -0.212500    1.255200
H     -1.818200   -0.155800   -0.695500
