12
gdb_21631
N      0.010600    1.325000    0.007300
C     -0.051100   -0.013200    0.001000
N     -1.182000   -0.671400    0.004700
C     -1.086900   -2.031600   -0.002600
N     -0.009200   -2.759600   -0.012900
N      1.148500   -2.040600   -0.016400
C      1.276400   -0.681900   -0.010400
O      2.341600   -0.080500   -0.014300
H      0.924300    1.749400    0.003600
H     -0.830000    1.875800    0.015000
H     -2.021700   -2.581300    0.000500
H      1.997300   -2.590300   -0.024500
