15
gdb_10442
C     -0.173500   -1.114700    0.489800
C     -0.072700    0.024900    0.123800
C      0.053500    1.414900   -0.301500
C      1.467200    1.980300   -0.117600
C      1.591000    3.398300    0.341300
N      1.925300    2.298900    1.251800
C      2.464600    1.422500   -0.997900
C      3.267500    0.964900   -1.765900
H     -0.258300   -2.124900    0.805800
H     -0.232000    1.508300   -1.356300
H     -0.649000    2.037500    0.267300
H      2.438500    3.990300    0.010600
H      0.670400    3.957200    0.492100
H      1.164700    2.127200    1.906300
H      3.988000    0.553500   -2.428600
