12
gdb_605
C     -0.124000    1.488800   -0.105700
N      0.019400    0.041900    0.024000
C      1.340800   -0.518100   -0.166700
C      0.720400   -0.486400    1.201100
C      1.276900    0.399100    2.195800
N      1.697300    1.106700    3.009000
H      0.752200    2.055200    0.242000
H     -0.295800    1.719400   -1.160700
H     -0.996800    1.814200    0.466800
H      1.393900   -1.463900   -0.698100
H      2.172900    0.162800   -0.338100
H      0.290500   -1.394000    1.615000
