20
gdb_19308
C     -0.139900    1.432800    0.144600
O      0.038500    0.048400    0.407200
C     -1.153400   -0.668800    0.390300
C     -1.695600   -1.171200   -0.925300
C     -1.051200   -2.122300    0.065900
C      1.187500    2.127600    0.264100
C      2.139100    2.138600   -0.903400
C      1.427700    3.405500   -0.500000
H     -0.558600    1.579300   -0.864600
H     -0.864400    1.857600    0.859900
H     -1.875500   -0.357900    1.147700
H     -2.769700   -1.212100   -1.070200
H     -1.123600   -0.930000   -1.814400
H     -0.061200   -2.490900   -0.176900
H     -1.678200   -2.820700    0.608500
H      1.633700    2.059200    1.251800
H      3.200900    2.055100   -0.700900
H      1.820900    1.645400   -1.815800
H      0.634300    3.769800   -1.144700
H      1.998800    4.190300   -0.017100
