14
gdb_10998
C     -0.079500    1.541200    0.046000
C      0.131800    0.055300    0.008400
O     -0.724600   -0.756500    0.843800
C      0.696700   -0.765900    1.085500
C      1.402600   -1.945500    0.418300
O      2.068900   -2.788500    0.966000
C      1.139500   -1.795900   -1.045500
C      0.460500   -0.666500   -1.278500
H      0.805500    2.068800   -0.323900
H     -0.929600    1.825200   -0.583900
H     -0.285200    1.870200    1.066900
H      1.029500   -0.393700    2.049400
H      1.458200   -2.534500   -1.769500
H      0.135100   -0.302700   -2.246800
