17
gdb_16710
C      0.044600    1.449600   -0.075100
N     -0.000900    0.008700    0.099300
C     -1.368900   -0.551700    0.327400
C     -1.122700   -1.405500    1.591200
C     -0.290500   -0.399800    2.462000
C      0.729600   -0.506600    1.273700
C      0.267600   -1.981500    1.246700
O      0.772500   -3.059500    1.181700
H      1.078300    1.765600   -0.247800
H     -0.538900    1.721400   -0.960600
H     -0.352600    2.027500    0.779800
H     -2.107700    0.238300    0.516700
H     -1.706700   -1.143100   -0.530200
H     -1.941400   -2.008200    1.977600
H     -0.743200    0.578900    2.632900
H      0.073800   -0.829700    3.396800
H      1.771300   -0.199100    1.330100
