15
gdb_4795
C     -0.118400    1.414900    0.018800
O     -0.016300   -0.007200    0.021900
C     -1.159900   -0.699300    0.007100
C     -1.357600   -2.044800   -0.037300
C     -2.787300   -2.217900   -0.021200
N     -3.443300   -3.450600   -0.132700
C     -3.334200   -0.972800    0.034700
O     -2.320200   -0.020900    0.045900
H      0.907800    1.783600    0.021700
H     -0.640200    1.773000   -0.874700
H     -0.646500    1.776800    0.906800
H     -0.597600   -2.806400   -0.089200
H     -2.970000   -4.188800    0.372300
H     -4.410000   -3.411200    0.163000
H     -4.337500   -0.586900    0.051100
