13
gdb_1438
C      0.330100    1.379800   -0.046500
N      0.633500    0.027700    0.386100
C     -0.234900   -0.708200    1.117400
O     -1.331700   -0.337300    1.484500
C      0.235300   -2.133000    1.501600
C      1.559400   -2.514900    1.030700
N      2.616100   -2.760300    0.630100
H      1.054800    2.093300    0.359200
H      0.337300    1.453100   -1.138900
H     -0.664700    1.629300    0.323300
H      1.521900   -0.376900    0.134000
H      0.194400   -2.200300    2.593100
H     -0.513200   -2.832100    1.116400
