18
gdb_6576
C      0.073200    1.543900    0.004000
C     -0.085400    0.062400    0.108100
C     -1.367300   -0.780600   -0.011700
C     -0.713800   -1.811700    0.996400
C     -1.394000   -1.823300    2.362500
O     -0.471200   -3.117200    0.524500
C      0.552400   -0.943300    0.981100
O      0.971700   -0.778000   -0.375700
H      1.088200    1.839300    0.282400
H     -0.110900    1.882700   -1.021900
H     -0.637000    2.059500    0.658700
H     -2.268400   -0.303400    0.383100
H     -1.550900   -1.169600   -1.015300
H     -2.393400   -2.269500    2.291500
H     -0.804900   -2.412700    3.072300
H     -1.511300   -0.811600    2.763000
H     -1.302400   -3.603500    0.547000
H      1.310100   -0.851800    1.753200
