15
gdb_8770
C     -0.056100    1.522900    0.122500
C      0.006500   -0.010300    0.001300
C     -1.407400   -0.576200    0.030700
O     -1.900200   -1.092500    0.999100
C      0.726200   -0.470100   -1.294700
O      0.113700    0.010500   -2.476900
C      2.156100   -0.105300   -1.244600
N      3.263700    0.222300   -1.205000
H      0.947300    1.957000    0.073800
H     -0.667200    1.963600   -0.672600
H     -0.504100    1.806200    1.077700
H      0.541000   -0.426100    0.861300
H     -1.974600   -0.453400   -0.917100
H      0.667000   -1.562300   -1.364100
H      0.295200    0.953700   -2.557900
