15
gdb_6313
N     -0.963100    1.458100   -0.597900
C     -0.217300    0.283700   -0.117400
C     -1.173500   -0.842500    0.330700
C     -1.988900   -0.579700    1.607500
N     -2.366000    0.709300    1.809800
O     -2.269900   -1.493200    2.357900
C      0.729700   -0.227000   -1.129500
N      1.451800   -0.598300   -1.952400
H     -0.322800    2.214400   -0.820800
H     -1.451800    1.225600   -1.458800
H      0.372200    0.606100    0.748700
H     -1.870200   -1.065300   -0.487400
H     -0.607000   -1.756200    0.516500
H     -2.171200    1.414500    1.110600
H     -2.945300    0.910000    2.608500
