14
gdb_16747
O     -0.691800    0.661400    0.512400
C      0.152800    0.941000   -0.291100
C      1.356600    1.836500    0.011800
O      2.531800    1.093300   -0.261700
C      3.445200    1.978200   -0.877600
C      3.214400    2.248600   -2.347500
C      2.658700    3.173600   -1.288000
O      1.325000    2.928400   -0.891100
H      0.143900    0.575100   -1.340400
H      1.330200    2.178000    1.058100
H      4.428100    1.999700   -0.422200
H      4.057500    2.602900   -2.932000
H      2.512900    1.607800   -2.869100
H      2.979000    4.202900   -1.178900
