16
gdb_18358
O     -0.130000    1.439200    0.106400
C      0.023300    0.038300    0.022400
C      0.557500   -0.572200    1.370300
C     -0.709000   -0.704000    2.217400
C     -1.745200   -0.786700    1.393900
C     -3.127400   -0.286400    1.058000
O     -2.610300    0.161000   -0.234200
C     -1.383400   -0.606800   -0.041500
H      0.745900    1.824200    0.209300
H      0.658200   -0.240200   -0.831600
H      1.065700   -1.530800    1.195900
H      1.295300    0.094800    1.832200
H     -0.718200   -0.609600    3.296300
H     -3.906400   -1.048500    0.925400
H     -3.516500    0.537600    1.665600
H     -1.385500   -1.491700   -0.693100
