20
gdb_7671
C      0.216800    1.442500   -0.160300
C      0.019300   -0.052500    0.035200
C     -1.437000   -0.458000   -0.174400
O      0.876200   -0.823300   -0.871100
C      1.414600   -1.601600    0.212500
C      2.770500   -1.065000    0.730100
C      2.010000   -0.207400    1.790800
C      0.653800   -0.754000    1.269100
H      1.268500    1.725000   -0.076600
H     -0.128100    1.735000   -1.157600
H     -0.358300    2.012000    0.577800
H     -1.752800   -0.217800   -1.194600
H     -1.566400   -1.533700   -0.023100
H     -2.094000    0.070400    0.525400
H      1.301200   -2.677500    0.051800
H      3.416400   -1.831300    1.167300
H      3.333400   -0.516500   -0.028300
H      2.215200   -0.521300    2.816800
H      2.149500    0.874600    1.738900
H     -0.045200   -1.155000    2.003300
