17
gdb_11988
C     -0.153100    1.571000    0.051400
C     -0.015000    0.061500    0.050900
O     -1.224600   -0.594800    0.396700
C      0.665000   -0.612200   -1.159900
N      2.070200   -0.130000   -1.169700
C      1.678100   -1.266900   -0.294700
C      1.117600   -0.582800    0.958500
O      1.988300    0.257100    1.657900
H      0.779400    2.047700   -0.258100
H     -0.939100    1.886400   -0.647000
H     -0.416000    1.926400    1.051600
H     -1.917200   -0.269200   -0.188900
H      0.190700   -0.978800   -2.063000
H      2.528700   -0.514500   -1.993900
H      2.167100   -2.229100   -0.383400
H      0.652200   -1.268200    1.668800
H      2.518100    0.701400    0.981900
