21
gdb_2364
C     -1.768600    0.773200   -0.607000
C     -1.388700   -0.536500   -1.314200
C     -2.234700   -0.746400   -2.579100
C      0.095100   -0.555700   -1.642600
C      1.132000   -0.901400   -0.599800
C      0.913400   -1.822300   -1.778000
C      0.341500   -3.210600   -1.584000
H     -1.187500    0.911300    0.310100
H     -1.576300    1.636500   -1.255600
H     -2.831400    0.787900   -0.342800
H     -1.602800   -1.360800   -0.621800
H     -2.052900    0.055000   -3.305300
H     -1.994500   -1.696200   -3.066300
H     -3.304900   -0.745000   -2.346300
H      0.379700    0.240300   -2.329900
H      2.044400   -0.317300   -0.543200
H      0.768000   -1.243200    0.365600
H      1.683600   -1.779300   -2.544700
H      1.132600   -3.918500   -1.312100
H     -0.405900   -3.238800   -0.785900
H     -0.134400   -3.583200   -2.498300
