18
gdb_4944
C     -0.012500    1.543600   -0.054500
C     -0.029300    0.014500    0.041600
N     -1.365100   -0.550500    0.041100
C     -2.102600   -0.860700    1.148500
C     -3.358400   -1.259800    0.745900
C     -3.388100   -1.187200   -0.676400
N     -4.509400   -1.453400   -1.489600
C     -2.146900   -0.743700   -1.084400
H      1.018000    1.913700   -0.056900
H     -0.501400    1.881200   -0.972700
H     -0.539000    1.990600    0.793600
H      0.528800   -0.421800   -0.794600
H      0.468700   -0.312500    0.959900
H     -1.673600   -0.776100    2.134900
H     -4.163300   -1.580000    1.390500
H     -5.068000   -2.214400   -1.123600
H     -4.247500   -1.679800   -2.440900
H     -1.753600   -0.553000   -2.070500
