19
gdb_15445
O      0.267500    1.301500   -0.379800
C      0.122500   -0.051000    0.000500
C     -1.341300   -0.394600    0.273900
N     -2.110200   -0.040400   -0.922000
C     -2.468400   -1.091400   -1.874200
C     -3.513500   -0.416700   -1.054300
C     -4.289900   -1.160300    0.013500
O     -3.677300   -2.404900    0.314300
H     -0.474600    1.464800   -0.978800
H      0.514100   -0.731200   -0.776000
H      0.720600   -0.208000    0.905000
H     -1.454300   -1.445800    0.567900
H     -1.701900    0.232900    1.098300
H     -2.348400   -0.846600   -2.926200
H     -2.231600   -2.116800   -1.603600
H     -4.119800    0.357700   -1.524000
H     -4.366200   -0.529200    0.913600
H     -5.314500   -1.307800   -0.364300
H     -4.108700   -2.772500    1.091100
