14
gdb_20577
C      0.039800    1.440900   -0.264400
C      0.053400   -0.023600    0.202900
O      0.572800   -0.149700    1.509300
C     -1.319800   -0.633800    0.089300
N     -2.037300   -0.896500    1.147200
O     -3.226700   -1.394000    0.691300
N     -3.247900   -1.444200   -0.671200
C     -2.092000   -0.981800   -1.057600
H      1.046900    1.854600   -0.173900
H     -0.283000    1.527100   -1.307300
H     -0.639800    2.032500    0.356800
H      0.732000   -0.590900   -0.447200
H     -0.153300   -0.036400    2.134000
H     -1.844100   -0.914600   -2.105500
