16
gdb_18438
C     -0.278900    1.506400   -0.037200
C      0.034800    0.030500    0.067900
O      1.111600   -0.429600   -0.813200
C      1.699800   -1.145100    0.262300
C      2.226100   -0.222900    1.336500
C      2.815000    1.062300    1.090800
C      3.367100    2.117200    0.918100
C      0.739000   -0.587100    1.279800
H      0.588400    2.118800    0.208800
H     -0.602300    1.745000   -1.055600
H     -1.099000    1.757300    0.644500
H     -0.859200   -0.565000   -0.161700
H      2.087100   -2.139400    0.069400
H      2.712600   -0.781100    2.135400
H      3.841800    3.052200    0.751500
H      0.247400   -1.052800    2.123500
