12
gdb_943
N     -0.016300    1.409700    0.143300
C      0.001900    0.025800    0.042400
C     -1.169700   -0.742200    0.025000
N     -1.159400   -2.071200   -0.012000
C      0.038000   -2.658200   -0.032800
N      1.219100   -2.038900   -0.026000
C      1.193800   -0.710000    0.011000
H      0.812100    1.880700   -0.190300
H     -0.861000    1.857900   -0.180400
H     -2.144700   -0.255200    0.041100
H      0.052600   -3.743900   -0.061700
H      2.155200   -0.196800    0.015700
