17
gdb_1512
C     -0.017800    1.503400    0.131900
C     -0.030300   -0.003700   -0.113900
C      0.721900   -0.413000   -1.375500
O      1.126800    0.384600   -2.183200
C      0.926000   -1.918200   -1.541200
O      1.495400   -2.202000   -2.781600
C      1.728700   -3.577200   -2.974800
H      1.003000    1.867800    0.275500
H     -0.434900    2.037300   -0.724900
H     -0.602500    1.755600    1.020700
H      0.387600   -0.553400    0.740300
H     -1.060900   -0.373400   -0.214700
H      1.564900   -2.266700   -0.707000
H     -0.047600   -2.426000   -1.407500
H      2.423300   -3.984400   -2.222700
H      0.795800   -4.161900   -2.931300
H      2.172800   -3.693300   -3.965900
