11
gdb_3028
N      0.068300   -3.707900   -0.036300
C      0.046300   -2.546000   -0.019500
C      0.022700   -1.182500    0.003000
C      0.003400    0.027100    0.032900
C     -0.011600    1.456100    0.040300
C      0.511000    2.189000    1.239600
N      1.265300    2.210200   -0.010500
H     -0.809900    1.911500   -0.539500
H      0.041300    3.129500    1.510900
H      0.874600    1.592200    2.070500
H      2.045800    1.559000    0.037600
