18
gdb_18963
C      0.188500    1.330400    0.175300
O     -0.313600    0.081600   -0.243900
C      0.452800   -0.512200   -1.257100
C      1.717700   -1.309500   -0.867000
C      0.866300   -2.517900   -0.332900
C      1.641600   -3.532800   -1.195800
C      1.526700   -2.279000   -2.085400
C      0.078400   -1.960600   -1.572700
H      1.194900    1.246100    0.612300
H      0.235500    2.050000   -0.657500
H     -0.493200    1.718000    0.936300
H      0.560900    0.170000   -2.116600
H      2.673800   -0.966900   -0.468200
H      0.472600   -2.627900    0.676200
H      2.646400   -3.805300   -0.856500
H      1.093800   -4.421900   -1.525100
H      1.895900   -2.112500   -3.098400
H     -0.853700   -2.355400   -1.978500
