14
gdb_21149
C     -0.076300    1.417000    0.048700
N     -0.029000   -0.036300   -0.009400
C      0.553800   -0.587600   -0.978400
O      1.190700   -0.041000   -2.062600
N      1.656500   -1.124400   -2.879000
N      1.336300   -2.194500   -2.322800
N      0.682300   -1.955600   -1.178200
C      0.166500   -3.001100   -0.324500
H      0.767500    1.806300    0.632900
H     -0.051800    1.897000   -0.937700
H     -0.993400    1.720800    0.561000
H      0.449600   -3.958800   -0.759900
H      0.588900   -2.903500    0.678900
H     -0.922200   -2.926300   -0.254400
