14
gdb_5373
C      0.008200    1.430700    0.125100
N      0.133600   -0.013200    0.064700
C      0.607300   -0.550000   -0.982700
N      0.708400   -1.966000   -0.989900
C      1.194800   -2.636300   -2.043900
N      1.610700   -2.064100   -3.135900
C      1.501500   -0.688500   -3.104000
N      1.052000    0.064100   -2.151800
H      0.579200    1.806300    0.982800
H      0.349600    1.944200   -0.779800
H     -1.040700    1.693800    0.307900
H      0.392500   -2.437600   -0.153600
H      1.231400   -3.719900   -1.950900
H      1.844300   -0.189100   -4.009300
