15
gdb_6822
C     -0.180100    1.551600   -0.058600
C     -0.024000    0.040600   -0.066700
O     -1.181100   -0.624600   -0.492900
C      1.242200   -0.486800   -0.773600
O      1.891000   -0.760900    0.491100
C      0.664000   -0.572500    1.213900
C      0.811800    0.258700    2.405000
N      0.887600    0.936800    3.338200
H      0.749300    2.043500    0.238900
H     -0.457100    1.897700   -1.059000
H     -0.957000    1.861200    0.650100
H     -1.953100   -0.145100   -0.173600
H      1.051100   -1.402500   -1.344100
H      1.810800    0.226000   -1.378100
H      0.195600   -1.526700    1.487600
