18
gdb_15363
C      0.074500    1.368000   -0.444400
C     -0.082100    0.080100    0.371100
C     -1.456800   -0.540100    0.216700
C     -1.767600   -1.444800   -0.959700
C     -1.683600   -2.004500    0.437000
O     -0.553800   -2.774200    0.806300
C     -0.510700   -4.040600    0.338700
O      0.373500   -4.794700    0.611300
H      1.071200    1.798700   -0.309900
H     -0.069800    1.178900   -1.513300
H     -0.658600    2.123200   -0.140100
H      0.680100   -0.647300    0.075100
H      0.096800    0.289800    1.432900
H     -2.274500    0.095000    0.549500
H     -2.738100   -1.394300   -1.440600
H     -0.942800   -1.678100   -1.625700
H     -2.593500   -2.324000    0.937100
H     -1.371800   -4.285300   -0.311200
