20
gdb_12843
C     -0.114100    1.539400    0.012500
C     -0.011400    0.017700    0.003100
C     -1.298700   -0.771700    0.404100
C     -0.435300   -1.683100    1.317700
C      0.775600   -0.718000    1.150000
C      2.052100   -1.317400    0.532000
C      1.772800   -1.227800   -0.953100
C      0.675700   -0.522500   -1.229000
H      0.870400    2.005200   -0.106200
H     -0.750700    1.896400   -0.806300
H     -0.550000    1.899200    0.951000
H     -1.999600   -0.148800    0.968600
H     -1.847900   -1.260200   -0.405700
H     -0.800300   -1.827600    2.337200
H     -0.243500   -2.666700    0.880300
H      0.965300   -0.110700    2.037900
H      2.959100   -0.757200    0.799400
H      2.222300   -2.349600    0.866100
H      2.418600   -1.686100   -1.695300
H      0.297700   -0.323200   -2.227800
