16
gdb_19939
C      0.342400    1.557200    0.255900
O      1.460000    1.426500   -0.654100
C      1.295500   -0.003500   -0.713000
C      2.268800   -0.784100    0.156800
O      2.440000   -0.192900    1.450300
C      1.553800   -1.307900    1.338100
C      0.089700   -0.903200    1.299100
C     -0.024500    0.061800    0.102900
H      0.667600    1.851900    1.259300
H     -0.396900    2.273700   -0.120400
H      1.275500   -0.374800   -1.743700
H      3.154700   -1.255400   -0.261300
H      1.867600   -2.208300    1.862200
H     -0.534000   -1.791300    1.146100
H     -0.223800   -0.444900    2.243700
H     -0.936900   -0.095500   -0.473000
