13
gdb_12760
O     -0.033100    1.436600    0.056100
C     -0.018300    0.067300    0.013500
C     -0.308000   -0.778600   -1.205700
C     -1.143500   -0.932700    0.036600
O     -0.475000   -1.776600    0.986800
C      0.603800   -0.815400    1.113700
C      1.930000   -1.385700    0.879000
N      2.985200   -1.808000    0.669300
H      0.629800    1.774600   -0.557000
H     -0.793700   -0.218800   -1.999600
H      0.357500   -1.575700   -1.525000
H     -2.220000   -0.845900    0.103100
H      0.569100   -0.325500    2.092800
