11
gdb_21547
N      0.079200    1.389800    0.164700
C     -0.011900    0.023900    0.047600
C     -1.101900   -0.810900    0.010700
O     -0.621200   -2.082000   -0.040900
N      0.763400   -1.997100   -0.038000
N      1.102900   -0.775200    0.013000
C     -2.478100   -0.564500    0.013700
C     -3.656900   -0.313500    0.012100
H      0.958600    1.767300   -0.157800
H     -0.720600    1.902900   -0.175600
H     -4.698100   -0.103200    0.018200
