17
gdb_21071
C      0.027800    1.409300   -0.032300
N      0.017500   -0.033800    0.042100
N     -0.003700   -0.758100   -1.094200
C      0.002800   -2.026000   -0.687100
C      0.014400   -2.123500    0.720300
N     -0.028100   -3.274700    1.545300
C      0.014000   -0.809800    1.165200
C      0.000900   -0.271600    2.555500
H      0.918800    1.824800    0.450600
H      0.032600    1.675500   -1.088700
H     -0.860500    1.839300    0.443200
H     -0.009900   -2.825900   -1.414400
H     -0.199100   -4.108100    0.995400
H      0.841500   -3.417700    2.048100
H      0.970600    0.141000    2.863000
H     -0.744000    0.522300    2.681300
H     -0.252100   -1.081400    3.245100
