16
gdb_19824
C     -0.149400    1.582800   -0.063700
C      0.069200    0.089000    0.052500
O      1.111200   -0.436400   -0.830500
C      1.724000   -1.159700    0.242900
C      2.909200   -0.446800    0.965600
O      2.630200    0.950100    0.981800
C      1.967700    0.136300    1.949200
C      0.753100   -0.564200    1.284900
H      0.766700    2.135600    0.139700
H     -0.493000    1.828400   -1.073900
H     -0.928600    1.898100    0.639600
H     -0.869700   -0.439000   -0.167500
H      1.843900   -2.230200    0.057500
H      3.949000   -0.743300    1.049600
H      2.104100    0.400500    2.991800
H      0.153300   -1.186400    1.947000
