14
gdb_19750
O      0.008000    0.007200    0.033600
C     -0.036200    1.205200    0.006300
C     -1.194700    2.156000    0.010800
C     -0.676600    3.375500    0.815700
C      0.756900    3.059400    1.257100
C      1.117600    2.247300   -0.007600
O      0.714500    3.108900   -1.084800
C     -0.617300    3.383800   -0.675900
H     -2.230300    1.855400   -0.032800
H     -1.355800    3.997400    1.381900
H      1.369200    3.958200    1.367800
H      0.814200    2.456900    2.167700
H      2.129200    1.881900   -0.151600
H     -1.172500    4.030800   -1.339200
