15
gdb_21024
C     -0.387100    1.343400   -0.090900
N      0.002300   -0.046000    0.016000
C      0.583500   -0.847300   -0.896200
N      0.759300   -2.058000   -0.400400
C      0.246800   -1.945400    0.859100
C      0.265500   -3.115700    1.798500
O      0.107100   -4.334400    1.103400
N     -0.227100   -0.746200    1.156700
H      0.128700    1.937500    0.667400
H     -0.117200    1.708700   -1.083300
H     -1.465800    1.443700    0.052100
H      0.852800   -0.510900   -1.886400
H      1.210300   -3.102400    2.368700
H     -0.549400   -3.021100    2.522300
H      0.560500   -4.223000    0.258000
