13
gdb_21361
N     -0.043000    1.349500    0.010100
C      1.265100    1.851900    0.000200
C      2.164100    0.818500   -0.014400
C      1.397800   -0.396000   -0.013700
C      0.059400   -0.009900    0.001500
N     -0.712500   -1.120500    0.003400
N      0.071700   -2.246000   -0.010900
C      1.327700   -1.814300   -0.020800
H     -0.878900    1.904300    0.022200
H      1.424900    2.918400    0.004500
H      3.237100    0.927700   -0.024300
H     -1.710400   -1.224400    0.011100
H      2.127200   -2.540500   -0.032600
