16
gdb_16211
O      0.081300    0.063700   -0.145600
C      0.012100    1.249600    0.071100
C     -1.242200    2.110800    0.255500
N     -0.834200    3.489700   -0.051500
C      0.594500    3.586400    0.334400
C      1.181200    2.198100    0.132300
C      2.492700    1.689000    0.611900
N      2.294900    1.961600   -0.811600
H     -2.068600    1.768500   -0.370400
H     -1.567700    2.036500    1.303800
H     -0.900700    3.623500   -1.055900
H      1.106800    4.344800   -0.259900
H      0.655000    3.880200    1.390300
H      3.160500    2.376500    1.124500
H      2.532800    0.654100    0.941800
H      2.114900    1.075300   -1.286200
