17
gdb_15226
C     -0.055300    1.566900    0.170000
C      0.009000    0.069000   -0.037900
C      0.550400   -0.585900   -1.277900
C      1.132300    0.184400   -2.447400
O      2.140100   -0.550900   -3.118300
C      1.329900   -0.697800    0.035500
C      2.573600    0.007000    0.154500
N      3.583700    0.570800    0.215000
H      0.842900    2.077400   -0.183500
H     -0.917900    1.991600   -0.353400
H     -0.163100    1.795900    1.234800
H     -0.809400   -0.469500    0.432500
H      0.075300   -1.516100   -1.576300
H      0.343100    0.361700   -3.185800
H      1.502700    1.165900   -2.126200
H      2.922800   -0.549600   -2.556200
H      1.323900   -1.658600    0.538500
