22
gdb_15828
C      0.014400    1.619100   -0.134700
C     -0.023200    0.091500   -0.029100
C      0.636000   -0.598600   -1.229000
C      0.711700   -2.139100   -1.142700
C     -0.671500   -2.800600   -1.186700
C      1.638700   -2.640600   -2.238800
C      1.501300   -3.913900   -2.957400
O      1.125200   -2.680400   -3.575400
H      1.044900    1.987300   -0.191300
H     -0.508500    1.966000   -1.032800
H     -0.461200    2.091400    0.730600
H      0.483000   -0.224600    0.893100
H     -1.065200   -0.234800    0.068800
H      0.108900   -0.323100   -2.152100
H      1.656400   -0.205300   -1.337000
H      1.196000   -2.396200   -0.188300
H     -1.344900   -2.358400   -0.448800
H     -1.119900   -2.677500   -2.177200
H     -0.612600   -3.871000   -0.968100
H      2.646700   -2.221800   -2.182800
H      2.388000   -4.392100   -3.372500
H      0.679200   -4.588700   -2.730700
