14
gdb_9083
N     -0.354000    1.282200    0.366700
C     -0.171000   -0.122600    0.013200
C     -1.541500   -0.823200   -0.086700
O     -2.132900   -0.901100    1.198700
C     -2.962400    0.103100    1.577300
O     -3.419200    0.167300    2.675500
C      0.588200   -0.331000   -1.236400
N      1.163200   -0.452000   -2.232000
H      0.508900    1.681400    0.719700
H     -0.620800    1.824300   -0.449700
H      0.374500   -0.609100    0.828900
H     -2.186300   -0.280700   -0.790500
H     -1.421700   -1.847200   -0.446300
H     -3.175600    0.812600    0.758300
