18
gdb_18730
O      0.058500    1.389600   -0.138600
C      0.038500   -0.028000   -0.026900
C      0.842700   -0.527700    1.180300
C      0.698700   -2.045500    1.345600
C     -0.752300   -2.450900    1.658800
C     -1.774100   -1.687800    0.833300
O     -2.064200   -0.345500    1.255100
C     -1.388600   -0.534500    0.002200
H     -0.443600    1.734400    0.609500
H      0.509200   -0.391600   -0.949900
H      1.889900   -0.241100    1.046400
H      0.477400   -0.018700    2.080600
H      1.018600   -2.536700    0.416800
H      1.365800   -2.411500    2.132800
H     -0.888300   -3.524800    1.490000
H     -0.977600   -2.271000    2.717200
H     -2.666700   -2.242800    0.543100
H     -1.988400   -0.278000   -0.871600
