18
gdb_7463
C      0.056900    1.525900   -0.090100
C      0.040000    0.070500   -0.049800
C      0.024000   -1.133800   -0.015300
C      0.007100   -2.585600    0.023300
C      0.936700   -3.201700   -1.030700
C      0.159200   -3.252700    1.425400
O     -1.033500   -4.033400    1.231300
C     -1.394000   -3.270700    0.066100
H      1.082000    1.911500   -0.121400
H     -0.465400    1.904900   -0.975600
H     -0.432000    1.955500    0.791300
H      1.970100   -2.879800   -0.871000
H      0.899400   -4.294100   -0.973800
H      0.637600   -2.895000   -2.037400
H      1.048200   -3.878300    1.566900
H      0.063400   -2.551300    2.263200
H     -2.220700   -2.577600    0.264100
H     -1.643700   -3.909400   -0.789100
