17
gdb_14673
C      0.094100    0.844000    0.370000
C     -0.581600    0.002200   -0.727800
C     -1.960800   -0.353300   -0.412900
C     -3.097600   -0.631400   -0.127600
C     -4.469500   -0.990900    0.212400
O     -4.573500   -2.210800    0.958500
C     -4.321600   -3.344300    0.270000
N     -4.368500   -4.458500    0.859400
H      1.123700    1.080900    0.086700
H     -0.444900    1.781900    0.527700
H      0.112500    0.301300    1.318600
H     -0.559100    0.548000   -1.679800
H     -0.005500   -0.916700   -0.895400
H     -4.920300   -0.232800    0.858900
H     -5.086400   -1.055000   -0.695000
H     -4.093400   -3.173700   -0.790500
H     -4.169500   -5.207600    0.199600
