16
gdb_16675
C      0.024300    1.434200    0.054200
C     -0.070600   -0.052500    0.032300
C     -0.078300   -0.920300   -1.000500
C     -0.020900   -2.295900   -0.354900
C     -0.994200   -2.101700    0.849600
C     -0.017300   -0.956300    1.261400
C      1.098500   -1.935600    0.704000
O      2.206600   -2.258200    0.974100
H      0.942800    1.763700    0.556300
H      0.029000    1.843700   -0.960000
H     -0.812000    1.885500    0.602100
H      0.001300   -0.711600   -2.058200
H     -0.001600   -3.189000   -0.974400
H     -2.005900   -1.783100    0.586400
H     -1.002900   -2.943200    1.549600
H      0.008900   -0.514700    2.255200
