14
gdb_23702
C     -0.011000    1.517600    0.004000
C     -0.001100    0.011000    0.010500
C     -0.092900   -0.724500   -1.168600
N     -0.089400   -2.062700   -1.229500
C      0.007600   -2.707200   -0.092800
F      0.010300   -4.037200   -0.163600
C      0.106400   -2.109100    1.161600
C      0.100700   -0.724400    1.198600
H      0.906800    1.926700    0.440700
H     -0.097500    1.906400   -1.014000
H     -0.849900    1.915700    0.585600
H     -0.174200   -0.210000   -2.123700
H      0.183300   -2.716400    2.054800
H      0.175500   -0.209100    2.151800
