15
gdb_10909
C     -0.093000    1.331000   -0.282100
N     -0.041100    0.006200    0.303400
C     -1.079900   -1.025500    0.238900
C     -0.971900   -1.805500   -1.048300
C      0.011900   -2.080800    0.074100
O      0.153800   -3.353600    0.560400
C      1.005000   -0.912000    0.132400
O      2.192600   -0.760200    0.051600
H      0.931000    1.706400   -0.350300
H     -0.535200    1.322700   -1.288300
H     -0.674100    2.011700    0.347400
H     -1.931300   -1.016800    0.905800
H     -1.694400   -2.607100   -1.178600
H     -0.658600   -1.319000   -1.967700
H      0.533000   -3.304300    1.445500
