16
gdb_18195
C     -0.367800   -1.204100   -0.525100
C     -0.163100   -0.051700   -0.250500
C      0.078400    1.339600    0.102700
C     -0.325000    1.668300    1.574800
O      0.507100    2.741300    1.992100
C      1.708600    2.667300    1.267400
C      2.440300    1.352100    1.189900
C      1.537400    1.800000    0.055000
H     -0.544900   -2.220600   -0.775800
H     -0.493700    1.985100   -0.575300
H     -1.366400    1.984400    1.669800
H     -0.174500    0.783000    2.205300
H      2.241900    3.610100    1.273200
H      3.508900    1.392300    1.009000
H      2.127900    0.527200    1.820900
H      1.963100    2.047100   -0.909500
