17
gdb_10053
C      0.018200    1.563900    0.043900
C     -0.015600    0.038200   -0.074200
C      0.745600   -0.505200   -1.308000
C      0.892000   -2.040100   -1.211400
C      1.654200   -2.617600   -2.317300
N      2.257200   -3.059000   -3.198500
C     -0.017300   -0.113800   -2.564600
O      0.215400    0.859400   -3.230000
H      1.045300    1.925200    0.157900
H     -0.403900    2.047600   -0.841100
H     -0.553000    1.892900    0.916600
H      0.425100   -0.412800    0.823200
H     -1.055400   -0.315100   -0.111100
H      1.734000   -0.038500   -1.361300
H      1.386300   -2.303800   -0.270400
H     -0.098400   -2.511700   -1.187300
H     -0.872400   -0.789300   -2.809400
