17
gdb_10544
C      0.082800    1.466000    0.059000
N      0.200000    0.015200    0.043200
C      0.556000   -0.529100   -1.252000
C      0.622800   -2.046000   -1.207900
C      1.543300   -2.763500   -2.139500
N      1.852200   -2.708400   -0.708800
C     -0.609200   -2.704400   -0.816200
N     -1.601800   -3.232200   -0.549000
H      0.989600    1.999100   -0.279700
H     -0.743400    1.771400   -0.592800
H     -0.152200    1.800700    1.072700
H      0.861700   -0.292600    0.747700
H     -0.212000   -0.220900   -1.973100
H      1.524000   -0.159900   -1.648400
H      1.264200   -3.744400   -2.509700
H      2.115400   -2.151400   -2.831700
H      2.559400   -1.997700   -0.530800
