14
gdb_20423
C      0.308200    1.648000    0.134200
C      1.095000    0.499900   -0.372200
N     -0.280400    0.302700    0.149700
C     -0.386000   -0.305400    1.401700
N      0.033100    0.117900    2.582400
C     -0.366100   -0.882800    3.417700
N     -0.998000   -1.889000    2.839700
N     -1.003400   -1.496500    1.539500
H      0.591500    2.063800    1.095300
H     -0.165600    2.331100   -0.563500
H      1.201000    0.326700   -1.438200
H      1.909500    0.140900    0.249800
H     -0.186400   -0.865500    4.482400
H     -1.446000   -2.056200    0.829500
