14
gdb_21282
C     -0.008400    1.363500   -0.009500
O     -0.038200   -0.069100    0.012300
C     -1.254200   -0.603200    0.032100
N     -2.384900    0.019500    0.045100
N     -3.325200   -1.028000    0.143700
C     -2.735300   -2.285200    0.027300
N     -3.195500   -3.471800   -0.051800
N     -1.376000   -1.967200    0.056300
H      1.046600    1.635800   -0.009900
H     -0.503800    1.742600   -0.907700
H     -0.512200    1.768400    0.872300
H     -4.234300   -0.834800   -0.242300
H     -4.212500   -3.473100   -0.045900
H     -0.636500   -2.644800   -0.000200
