10
gdb_93
O      0.000500    0.006700   -0.097400
C     -0.013700    1.192100    0.031400
C     -1.106700    2.266100    0.172500
N     -0.035400    3.251200    0.485300
C      1.053300    2.295200    0.143800
H     -1.650500    2.428000   -0.768900
H     -1.836100    2.113700    0.975700
H     -0.054300    4.071900   -0.107300
H      1.807500    2.162800    0.927400
H      1.567400    2.471300   -0.811500
