17
gdb_4133
C      0.899300    0.951400   -0.748200
C     -0.042000    0.104000    0.067800
O      0.430600   -1.139800    0.593000
C      0.038900   -0.127400    1.527700
C      1.085000    0.423600    2.438400
C      2.550500    0.269300    2.146300
N      0.608400    0.976500    3.491100
O      1.618700    1.493800    4.309500
H      1.887700    1.033300   -0.296100
H      1.016000    0.523800   -1.749700
H      0.485400    1.959000   -0.863200
H     -1.047500    0.031400   -0.354100
H     -0.902500   -0.316300    2.042200
H      2.705300   -0.463900    1.355200
H      2.996200    1.225500    1.849400
H      3.071100   -0.048100    3.053600
H      1.119400    1.826800    5.062800
