14
gdb_16271
O     -0.961200    1.238000   -0.195500
C      0.153500    0.884800    0.115200
C      1.344400    1.751700    0.035100
C      1.199000    3.280900    0.018500
C      1.802700    2.675000   -1.173800
C      3.274300    2.317300   -0.917000
C      2.782300    1.362500    0.203900
O      3.317200    0.485600    0.821300
H      0.360200   -0.145900    0.470000
H      0.157000    3.575300   -0.055000
H      1.804000    3.862600    0.708000
H      1.311700    2.658200   -2.137300
H      3.751900    1.746200   -1.717200
H      3.926400    3.145700   -0.625900
