19
gdb_17825
C     -0.378600    1.339100   -0.152800
N      0.047300   -0.041600    0.032700
C      1.443200   -0.367400   -0.217200
C      0.892600   -0.415400    1.169300
C      1.362400    0.560200    2.214300
C      0.531800    0.691100    3.514600
C      1.834900    0.271800    4.220100
O      2.491800    0.031800    2.956800
H      0.403500    2.093800    0.022500
H     -0.726000    1.456100   -1.184500
H     -1.221700    1.554100    0.512000
H      1.634800   -1.283500   -0.769600
H      2.125800    0.452100   -0.444000
H      0.641800   -1.390400    1.587300
H      1.621300    1.526300    1.763900
H      0.146300    1.685100    3.745200
H     -0.278100   -0.037300    3.592000
H      2.329500    1.068400    4.791100
H      1.793900   -0.632400    4.837900
