15
gdb_14890
N      0.143900   -1.111300    0.168500
C      0.017500    0.035600    0.106200
C     -0.087700    1.482100    0.022600
N     -1.250000    2.009700    0.100400
C     -1.303000    3.467600    0.029500
C     -0.022600    4.157800    0.520500
C      1.195800    3.567300   -0.195500
N      1.117800    2.114900   -0.138600
H     -1.513500    3.757100   -1.010500
H     -2.164300    3.801000    0.617300
H     -0.070900    5.236700    0.347500
H      0.081500    4.000200    1.599600
H      1.226200    3.909800   -1.239500
H      2.126400    3.891100    0.281000
H      1.957500    1.562200   -0.152400
