15
gdb_13585
C      0.335500    1.322800   -0.071100
C      0.031500   -0.153100    0.020200
C      0.731300   -1.154100   -0.864600
N      1.019000   -1.069100    0.548500
C      2.187400   -0.796400    1.200300
O      2.323000    0.011900    2.097800
C      3.382900   -1.671700    0.801700
O      3.418900   -2.397100   -0.155900
H      1.338000    1.497400   -0.472400
H     -0.389400    1.812300   -0.728800
H      0.284200    1.792000    0.914800
H     -0.985600   -0.398000    0.322000
H      0.215900   -2.052900   -1.190800
H      1.483700   -0.781600   -1.554400
H      4.238100   -1.526600    1.493700
