13
gdb_23712
N     -0.025500    1.381600    0.157000
C      0.023100   -0.000100    0.054500
N     -1.153400   -0.635100    0.039300
C     -1.155200   -1.969600    0.003400
C      0.009000   -2.717400   -0.029600
F     -0.051700   -4.054800   -0.072200
C      1.238800   -2.070900   -0.022800
C      1.250200   -0.687600    0.023000
H      0.748200    1.888700   -0.244100
H     -0.928700    1.765200   -0.080200
H     -2.120500   -2.469000   -0.005500
H      2.156200   -2.647900   -0.050600
H      2.187000   -0.141200    0.040600
