11
gdb_766
N     -0.028600    1.378000    0.165600
C      0.050800   -0.010600    0.047500
N     -1.051600   -0.754800    0.015600
N     -0.588300   -2.030400   -0.018600
C      0.760000   -2.102200   -0.023900
C      1.225300   -0.805700    0.020800
H      0.662200    1.864700   -0.389400
H     -0.957700    1.713800   -0.054800
H     -1.250200   -2.785200   -0.042300
H      1.279200   -3.047400   -0.053500
H      2.251800   -0.478100    0.044900
