12
gdb_21927
O     -0.006300    1.431300    0.007400
C      0.010800    0.020900    0.002300
C     -1.409600   -0.473900    0.012200
C     -2.521300    0.366100    0.023900
N     -3.743200   -0.146900    0.032100
N     -3.875900   -1.471800    0.028900
N     -2.828800   -2.266600    0.017900
N     -1.589100   -1.789800    0.009500
H      0.899900    1.751300    0.001100
H      0.510800   -0.392200   -0.887300
H      0.525300   -0.398400    0.880700
H     -2.429300    1.445700    0.026700
