19
gdb_13512
C     -0.735700    1.300800    0.207800
C     -0.249900   -0.142100    0.119100
C      0.796900   -0.406800   -1.003400
C      1.919300   -0.438300    0.066000
C      0.848100   -0.566100    1.175700
C      1.019300    0.327600    2.390300
N      0.346200   -0.080500    3.507500
O      1.680500    1.350600    2.373800
H      0.100600    2.002800    0.268400
H     -1.334200    1.551500   -0.674700
H     -1.361000    1.458000    1.093500
H     -1.111700   -0.816400    0.103000
H      0.649700   -1.374100   -1.491500
H      0.874600    0.360500   -1.778600
H      2.654500   -1.243100   -0.000100
H      2.443200    0.514500    0.163800
H      0.693500   -1.604400    1.485800
H     -0.236100   -0.898800    3.514600
H      0.356600    0.516400    4.318400
