19
gdb_1352
C      0.124000    1.476500   -0.021200
C     -0.052900   -0.051100   -0.000500
C     -1.538100   -0.421500    0.019200
C      0.718900   -0.706300   -1.179400
C      2.110600   -1.043500   -0.586600
O      2.081700   -0.657300    0.786500
C      0.724000   -0.647000    1.190200
H      1.183000    1.746900    0.026400
H     -0.298700    1.908700   -0.934700
H     -0.380800    1.941800    0.832800
H     -2.052000   -0.039900   -0.869700
H     -1.679200   -1.507500    0.046400
H     -2.040600    0.004500    0.895200
H      0.210600   -1.617000   -1.510100
H      0.785300   -0.039000   -2.042900
H      2.325500   -2.118900   -0.673900
H      2.930100   -0.498800   -1.065300
H      0.650700   -0.052100    2.105700
H      0.367000   -1.668600    1.410400
