12
gdb_20332
C     -0.265400   -0.941300   -0.813900
C     -0.064000    0.064200   -0.190500
C      0.156300    1.289100    0.563400
N      1.409900    1.948000    0.199200
C      2.154300    1.901500   -0.919700
N      3.172100    2.724200   -0.786900
N      3.032400    3.283000    0.444400
N      1.983500    2.830000    1.045800
H     -0.443800   -1.837100   -1.357500
H     -0.671800    1.989400    0.402600
H      0.206600    1.087200    1.637400
H      1.933700    1.273100   -1.765500
