13
gdb_825
O     -0.141400    1.317600   -0.028900
N      0.034500   -0.079200    0.002200
C     -1.082600   -0.668800   -0.084100
C     -2.549400   -0.290200   -0.005800
N     -2.909000   -1.744000    0.219400
C     -2.474700   -2.439300   -0.993400
C     -1.429700   -2.105300    0.012400
H      0.761400    1.637600    0.072400
H     -2.778400    0.312800    0.876300
H     -3.021300    0.156300   -0.886200
H     -2.796800   -3.475600   -1.032600
H     -2.495400   -1.915600   -1.947000
H     -0.917900   -2.857300    0.601300
