14
gdb_12955
N     -0.050300    1.462000   -0.166000
C     -0.061200    0.033600   -0.024300
C     -0.467300   -0.736200    1.185900
O     -1.500600    0.012100    1.883500
C     -2.376600   -0.154300    0.806000
O     -3.534700    0.105200    0.774600
C     -1.340800   -0.814000   -0.078000
N     -1.513500   -1.820400   -1.053300
H     -0.657500    1.882500    0.532800
H      0.885300    1.812200    0.019200
H      0.715500   -0.456100   -0.607500
H      0.046900   -1.506700    1.743700
H     -2.285000   -2.438100   -0.823500
H     -1.694500   -1.420700   -1.968100
