11
gdb_3846
N     -0.046600    1.265200    0.343800
C     -0.057200    0.057700   -0.045900
O      1.126500   -0.573800   -0.420900
N      1.191300   -1.894300   -0.857900
C      0.082800   -2.544100   -0.908700
C     -1.208800   -2.008700   -0.549200
C     -1.270100   -0.735900   -0.128200
H      0.901600    1.644000    0.329900
H      0.189600   -3.567400   -1.255500
H     -2.087600   -2.637900   -0.626400
H     -2.187300   -0.240500    0.164400
