13
gdb_816
O     -0.101100    1.338800   -0.013700
N      0.026700   -0.068700   -0.042500
C     -1.125100   -0.625400    0.019900
C     -1.263700   -2.143500   -0.001200
N     -2.715000   -2.340700   -0.163900
C     -3.332600   -1.116400    0.026200
C     -2.468600   -0.079400    0.094500
H      0.816500    1.621500   -0.076900
H     -0.703600   -2.602800   -0.820300
H     -0.910500   -2.582700    0.940700
H     -3.125500   -3.149100    0.279100
H     -4.414700   -1.079400    0.058100
H     -2.711700    0.968400    0.136800
