16
gdb_12931
C      0.261800    0.962500    0.384100
O     -0.455800    0.064400   -0.446900
C      0.344700   -0.568100   -1.384900
C      1.401000   -1.590100   -1.021000
O      1.048700   -2.279300    0.174300
C     -0.162500   -2.794500   -0.445200
C      0.117300   -2.009900   -1.728800
O     -0.101200   -2.494300   -3.001100
H      1.042300    0.438300    0.949100
H      0.723900    1.772500   -0.199400
H     -0.460000    1.396500    1.079700
H      0.630800    0.037700   -2.250100
H      2.445600   -1.551200   -1.308100
H     -0.086100   -3.876100   -0.597200
H     -1.061900   -2.538800    0.122300
H     -0.885900   -2.064900   -3.359700
