17
gdb_18795
O     -0.018700    1.460700   -0.115700
C      0.000200    0.059100    0.024900
C      0.234800   -0.577800    1.416200
C     -0.478600    0.154800    2.563600
C     -1.774100   -0.539700    2.099800
C     -2.438100    0.105600    0.868400
C     -1.380800   -0.612800    0.013300
N     -0.974000   -1.504100    1.201100
H      0.888800    1.778300   -0.159800
H      0.656900   -0.409000   -0.721200
H      1.210400   -1.029300    1.611700
H     -0.148500   -0.205300    3.540900
H     -0.453200    1.247700    2.551900
H     -2.424200   -0.968500    2.865300
H     -3.436200   -0.300900    0.687700
H     -2.476500    1.195900    0.814200
H     -1.702300   -1.087900   -0.915400
