16
gdb_8463
C     -0.079300    1.511900    0.074100
C      0.161900    0.040800   -0.009500
C      0.625900   -0.788100   -1.222100
C      1.299700   -1.736100   -0.184800
O      2.078400   -2.638700   -0.271500
C      0.768800   -0.903600    0.981200
C      1.280300   -0.767600    2.374900
O     -0.663500   -0.847300    0.747200
H      0.774800    2.066500   -0.327000
H     -0.964800    1.790700   -0.507500
H     -0.245200    1.817800    1.110500
H     -0.173100   -1.202500   -1.840300
H      1.382700   -0.312600   -1.854100
H      2.366100   -0.633400    2.372300
H      0.817100    0.086800    2.875800
H      1.054100   -1.667800    2.955400
