16
gdb_550
O     -0.061200    1.434000    0.010200
C      0.017700    0.016100    0.002000
C     -1.402100   -0.533700    0.012500
C     -1.443800   -2.063400    0.004800
C     -2.863600   -2.613300    0.015400
O     -2.784700   -4.031100    0.007100
H      0.834000    1.784700    0.003300
H      0.550300   -0.348600   -0.891900
H      0.567200   -0.358000    0.881600
H     -1.916900   -0.141900    0.898600
H     -1.933700   -0.132500   -0.859300
H     -0.928900   -2.455300   -0.881200
H     -0.912200   -2.464600    0.876700
H     -3.396200   -2.248500    0.909200
H     -3.413000   -2.239100   -0.864200
H     -3.679800   -4.381900    0.013900
