18
gdb_20836
C     -0.490800    1.397200    0.141300
C      0.374600    0.144500   -0.076500
C      0.881400   -0.450600    1.203500
N      2.155700   -0.294000    1.567100
N      2.264900   -0.914300    2.760000
C      3.546000   -0.961500    3.427800
C      1.092400   -1.463800    3.160000
C      0.165600   -1.185200    2.178700
H      0.080900    2.178700    0.650900
H     -0.843800    1.799400   -0.813700
H     -1.367400    1.170800    0.756800
H     -0.208100   -0.606900   -0.623400
H      1.237700    0.395700   -0.700600
H      3.943800    0.049700    3.545400
H      3.416100   -1.413900    4.412500
H      4.262000   -1.554800    2.851100
H      1.014100   -2.002400    4.091600
H     -0.874400   -1.469500    2.166700
