21
gdb_9282
C      0.180700    1.585600    0.123900
C     -0.052900    0.084800   -0.074200
C      0.663800   -0.521500   -1.294900
C      2.191300   -0.455300   -1.177600
C      0.179200   -1.969400   -1.500000
N      0.674200   -2.588100   -2.719800
C      1.488800   -3.677300   -2.735100
O      1.905000   -4.260300   -1.756400
H      1.231200    1.813400    0.326500
H     -0.117500    2.153000   -0.765100
H     -0.404500    1.962200    0.968500
H      0.261700   -0.458200    0.827500
H     -1.131500   -0.094900   -0.174500
H      0.359700    0.058300   -2.181200
H      2.673000   -0.924700   -2.039800
H      2.546500    0.577200   -1.121400
H      2.534900   -0.981600   -0.279700
H      0.519700   -2.607300   -0.679700
H     -0.918400   -1.990400   -1.504100
H      0.395300   -2.198800   -3.606700
H      1.737800   -3.984400   -3.771100
