12
gdb_21839
O      0.029500   -0.059500   -0.076700
C      0.126300    1.110900   -0.268600
O      0.942600    1.901200    0.484700
C      0.924900    3.253000    0.230700
C      2.024400    4.020100   -0.092800
N      1.554500    5.286600   -0.189800
N      0.235700    5.394300    0.042600
C     -0.160200    4.151900    0.307400
H     -0.405500    1.685700   -1.047900
H      3.059200    3.761300   -0.243200
H      2.078700    6.118300   -0.403400
H     -1.191800    3.944500    0.548900
