18
gdb_6624
C     -0.033900    1.493300   -0.015500
C     -0.004300    0.038200    0.034400
C      0.035500   -1.164600    0.077400
C      0.052700   -2.622300    0.125900
C     -1.350600   -3.231600   -0.020900
C     -1.348400   -4.753800    0.027900
C     -2.700500   -5.431400   -0.110600
O     -0.326600   -5.386400    0.169000
H      0.574600    1.877000   -0.842100
H     -1.054000    1.868000   -0.156200
H      0.353400    1.932600    0.910600
H      0.699700   -3.024000   -0.662200
H      0.494900   -2.968900    1.066900
H     -2.018100   -2.856700    0.765900
H     -1.813300   -2.911800   -0.963600
H     -3.170500   -5.155300   -1.061100
H     -2.579000   -6.514100   -0.061800
H     -3.377100   -5.099800    0.685000
