14
gdb_10470
O      0.522900   -0.292900    0.061300
C      0.235400    0.813900   -0.308100
C      1.026200    2.058300    0.068800
C      1.201300    3.010700   -1.092300
C      2.518600    3.606900   -1.416400
O      1.992700    2.555800   -2.205600
C      0.002300    3.800500   -1.527900
O     -1.018400    3.878600   -0.893500
H     -0.657200    0.999900   -0.944000
H      0.454600    2.581200    0.847200
H      1.985000    1.745700    0.487200
H      2.575300    4.579800   -1.903500
H      3.361100    3.350900   -0.776200
H      0.142500    4.310600   -2.505600
