18
gdb_10434
O      0.149500    1.368700   -0.213500
C      0.099500   -0.018100    0.044100
C     -1.332900   -0.561800    0.066900
C     -2.044200   -0.491200   -1.331300
C     -1.720900   -1.991700   -1.552800
C     -1.412500   -2.119100   -0.037700
C     -2.138800    0.059700    1.173400
O     -1.793000    1.007400    1.841800
H     -0.286900    1.787300    0.539900
H      0.665500   -0.507300   -0.756400
H      0.591600   -0.274100    0.996000
H     -3.119300   -0.306800   -1.242100
H     -1.619200    0.245500   -2.015100
H     -2.523300   -2.618000   -1.947800
H     -0.834500   -2.140500   -2.174000
H     -0.509500   -2.660000    0.258000
H     -2.257000   -2.525900    0.527500
H     -3.136100   -0.409600    1.341000
