14
gdb_6434
O      0.218200    1.524600   -0.227100
C     -0.006300    0.175300    0.020400
C      0.166900   -0.279300    1.518600
C     -1.239200   -0.889000    1.454700
O     -1.850900   -1.631600    2.163700
C     -1.518200   -0.262300    0.082700
C      0.796700   -0.675100   -0.932200
O      1.515300   -0.185100   -1.769600
H      0.848100    1.558000   -0.965800
H      0.985800   -0.956200    1.777200
H      0.214100    0.603000    2.164100
H     -2.152600    0.627000    0.147500
H     -1.911500   -0.926800   -0.691500
H      0.691500   -1.773800   -0.821700
