15
gdb_2903
O      0.543100   -0.257600   -0.084000
C      0.239100    0.903900   -0.003000
C      1.200900    2.066100    0.021300
C      0.947700    3.064200   -1.150800
C      1.119700    4.418400   -0.505400
C      1.179200    4.341500    0.821100
C      1.058600    2.920900    1.318600
H     -0.833400    1.213000    0.063000
H      2.213100    1.661600   -0.047700
H      1.635800    2.885900   -1.983700
H     -0.066700    2.958000   -1.564500
H      1.151200    5.334400   -1.084700
H      1.267200    5.184500    1.497200
H      0.084700    2.762400    1.806200
H      1.817400    2.651200    2.060500
