17
gdb_13387
C     -0.095400    1.525000   -0.068900
C      0.012200    0.013700    0.021700
O      0.720500   -0.452000   -1.126500
C      0.827900   -1.826800   -1.221500
C      1.561700   -2.204300   -2.524000
N      2.886700   -2.684400   -2.102100
C      2.843500   -2.720200   -0.837700
O      1.707600   -2.352600   -0.187900
H      0.898900    1.979400   -0.093300
H     -0.630400    1.821100   -0.975500
H     -0.635000    1.917700    0.798000
H      0.543400   -0.290200    0.932300
H     -0.986500   -0.450900    0.048300
H     -0.144500   -2.311900   -1.065900
H      1.042300   -2.991100   -3.080100
H      1.650400   -1.326900   -3.169800
H      3.651000   -3.038300   -0.187500
