20
gdb_3103
C      0.101900    2.236600    1.212800
C     -0.686800    0.941700    1.404800
N      0.215300   -0.142400    1.778400
C     -0.231300   -1.537800    1.744200
C     -1.634100   -1.955900    1.355200
C      0.785100   -1.038400    0.764000
C      0.518400   -0.914400   -0.721700
H      0.807200    2.146600    0.380200
H     -0.571000    3.072500    0.996300
H      0.675800    2.470800    2.113600
H     -1.401100    1.065800    2.228100
H     -1.284900    0.744200    0.502200
H      0.149400   -2.111600    2.590700
H     -2.015600   -1.437000    0.474100
H     -1.657800   -3.030600    1.144600
H     -2.333200   -1.769200    2.178200
H      1.826500   -1.285100    0.975200
H     -0.530000   -0.736700   -0.966500
H      1.105000   -0.096800   -1.155400
H      0.821700   -1.837500   -1.227800
