20
gdb_17111
C      0.129500    1.321500    0.070100
O     -0.182400   -0.033100   -0.149700
C      0.544100   -0.618400   -1.211500
C      2.031700   -0.976700   -0.860200
C      1.951300   -2.507100   -1.020000
C      1.153700   -2.637400   -2.350800
C      0.008700   -2.029800   -1.489300
C      0.609800   -2.840700   -0.304500
H      1.181100    1.467500    0.360700
H     -0.064700    1.933800   -0.825300
H     -0.509100    1.675500    0.883300
H      0.475100    0.028300   -2.099900
H      2.755800   -0.519000   -1.540700
H      2.275300   -0.672100    0.162000
H      2.861500   -3.078100   -0.833600
H      1.505200   -2.074800   -3.222200
H      0.954900   -3.674600   -2.629400
H     -1.040700   -2.100000   -1.774600
H      0.359100   -3.902500   -0.360500
H      0.448100   -2.459000    0.705700
