19
gdb_17172
C     -0.004600    1.555900   -0.062600
C     -0.031400    0.026900    0.059500
C      0.697500   -0.480300    1.280200
C      0.447000   -0.216000    2.766000
N      1.648500   -1.148300    2.859600
C      1.107300   -1.947200    1.644000
C      2.463000   -1.870800    0.935800
C      2.238100   -0.499400    1.579000
H      1.022400    1.928100   -0.139800
H     -0.549700    1.891400   -0.949700
H     -0.464200    2.030800    0.810500
H     -1.071800   -0.322600    0.097400
H      0.409400   -0.425200   -0.838800
H      0.644400    0.787600    3.158800
H     -0.461800   -0.630000    3.217900
H      0.444500   -2.801000    1.801300
H      3.263700   -2.477000    1.367300
H      2.461800   -1.919000   -0.155800
H      2.912900    0.355300    1.661600
