14
gdb_16082
C     -0.044300   -1.188000   -0.004700
C     -0.016700    0.015200   -0.001700
C      0.008900    1.439800    0.008800
C      0.403300    2.269200   -1.193300
C      1.281500    2.360600    0.025900
N      1.024400    3.397300    0.978800
C     -0.159500    3.209100    1.438600
N     -0.869200    2.138100    0.927400
H     -0.061700   -2.249700   -0.009700
H      0.805300    1.718300   -2.035500
H     -0.229800    3.114400   -1.443200
H      2.293300    1.974600   -0.021500
H     -0.631100    3.857600    2.169600
H     -1.487700    1.599500    1.515200
