16
gdb_802
C     -0.651100    1.323800   -0.175100
C      0.135100    0.043600    0.059900
C      1.398900   -0.202800   -0.836600
C      2.171400   -0.480600    0.434800
C      1.042000   -0.026000    1.335200
N      3.313400   -1.002300    0.596800
O      3.619400   -1.122100    1.968300
H      0.006300    2.200300   -0.139400
H     -1.141900    1.315000   -1.154500
H     -1.427200    1.458200    0.586200
H     -0.533300   -0.821400    0.020700
H      1.347900   -1.014800   -1.566400
H      1.735200    0.704400   -1.351900
H      1.228100    0.953100    1.791600
H      0.753700   -0.721500    2.127600
H      4.486100   -1.541100    1.944300
