15
gdb_18953
O      0.059300    0.019400   -0.444600
C      0.030600    1.191800   -0.138200
N      1.053500    1.870300    0.466600
C      2.506500    1.647100    0.242400
C      2.605400    2.718600   -0.906000
C      3.768300    3.450200   -0.206700
C      2.874800    2.987000    0.962400
C      1.562000    3.234400    0.149300
H     -0.875600    1.825000   -0.241800
H      2.979900    0.671200    0.313900
H      2.420600    2.544400   -1.966300
H      4.754100    2.984100   -0.281500
H      3.840300    4.528700   -0.370800
H      2.993900    3.122200    2.036900
H      0.930800    4.121800    0.120200
