14
gdb_3701
C      0.026700    1.510700   -0.048400
C      0.007600    0.018500    0.007300
N     -0.030300   -0.733100   -1.095100
N     -0.035500   -1.972500   -0.621200
N     -0.004300   -2.102400    0.699000
C      0.023900   -0.840300    1.132500
C      0.065000   -0.499900    2.586000
H      0.927400    1.918300    0.424500
H      0.002600    1.847500   -1.086600
H     -0.834600    1.942600    0.473600
H     -0.061800   -2.772400   -1.231300
H      0.962000    0.077200    2.837600
H     -0.800100    0.104700    2.880900
H      0.065500   -1.412600    3.184900
