18
gdb_18093
C     -0.034000    1.473700   -0.492300
C      1.247100    2.060400    0.044300
C      2.021400    1.149800    0.629600
C      1.415000   -0.232600    0.634500
C      1.222500   -0.839300    2.056800
C     -0.245600   -0.633300    2.331600
C     -0.909100   -0.192600    1.265400
C     -0.025800    0.016400    0.059200
H     -0.920400    2.032700   -0.166900
H     -0.047400    1.493900   -1.590500
H      1.495900    3.110500   -0.067600
H      2.994200    1.347500    1.068900
H      2.004500   -0.913000    0.009100
H      1.482800   -1.906200    2.083500
H      1.861900   -0.351400    2.803100
H     -0.691200   -0.849800    3.297000
H     -1.975700    0.007000    1.232800
H     -0.287900   -0.691000   -0.736100
