20
gdb_12885
C     -0.161500    1.567800   -0.008000
C      0.023300    0.064500    0.055200
C      1.331700   -0.649400   -0.218600
C      2.616200    0.146600   -0.099900
O      2.541000    0.845800    1.141800
C      1.689500    0.125800    2.028300
C      0.725500   -0.683400    1.171100
C      0.108800   -1.916900    1.785800
H      0.710400    2.101400    0.373300
H     -0.333000    1.890300   -1.041200
H     -1.034800    1.875000    0.578500
H     -0.836100   -0.483300   -0.328300
H      1.336000   -1.529400   -0.853300
H      3.483100   -0.533700   -0.120100
H      2.759000    0.899800   -0.883300
H      2.271900   -0.559100    2.667300
H      1.203700    0.862300    2.679500
H     -0.563100   -1.659500    2.613500
H     -0.478800   -2.473100    1.049000
H      0.876200   -2.592800    2.181700
