14
gdb_10797
O     -0.010500    0.149400   -0.767600
C     -0.015300    1.163500   -0.119700
C     -1.291900    1.761700    0.463700
N     -1.123400    3.177400    0.748600
C     -0.026900    3.636800    1.459600
O     -0.031700    4.660700    2.113400
N      1.075700    2.805800    1.346900
C      1.254900    1.952800    0.183200
H     -2.100500    1.614900   -0.256200
H     -1.540200    1.170000    1.361300
H     -1.958200    3.704700    0.956800
H      1.906000    3.222100    1.741200
H      2.067400    1.243100    0.356600
H      1.503700    2.519700   -0.730100
