15
gdb_11867
O     -0.010400   -0.010700   -0.086100
C     -0.009100    1.195600   -0.021800
C     -1.261400    2.094800    0.045800
C     -0.707400    3.513800    0.007300
C     -1.379900    4.631900   -0.717600
N     -1.300100    4.647800    0.747800
C      0.770900    3.375300    0.046300
C      1.167500    2.095600    0.014900
H     -1.940800    1.856900   -0.776700
H     -1.790000    1.883600    0.982300
H     -0.787500    5.393600   -1.217800
H     -2.331500    4.411700   -1.195100
H     -2.190100    4.359800    1.148100
H      1.412300    4.248400    0.092100
H      2.183600    1.723300    0.015900
