16
gdb_13095
C     -0.214300    1.472100    0.177300
C      0.125200    0.000800    0.056100
O      1.239400   -0.252200   -0.837700
C      2.036900   -0.826000    0.214800
C      0.892300   -0.669200    1.226800
O      1.202200    0.178700    2.322800
C      0.808300   -0.192000    3.559900
O      1.011300    0.475000    4.527000
H      0.637700    2.046200    0.547900
H     -0.500600    1.859000   -0.805100
H     -1.055700    1.618800    0.862600
H     -0.755000   -0.573100   -0.263100
H      2.346600   -1.853600   -0.007800
H      2.918700   -0.220300    0.454800
H      0.452200   -1.603400    1.588500
H      0.290100   -1.170900    3.567100
