14
gdb_16048
O     -0.023200    1.396100    0.044600
C     -0.061400    0.009800    0.053200
C     -1.347900   -0.787900    0.075700
C     -2.368400   -0.076900   -0.796100
O     -1.416300    0.046500   -1.896500
C     -0.452100   -0.756700   -1.180800
C      0.305200   -1.731600   -1.877900
C      0.961800   -2.555500   -2.459200
H     -0.374400    1.669900   -0.814600
H      0.747100   -0.425300    0.632400
H     -1.540700   -1.600200    0.763200
H     -3.212100   -0.703900   -1.098600
H     -2.724400    0.899000   -0.449700
H      1.539400   -3.281700   -2.975800
