14
gdb_8965
O     -0.073700   -0.102300    0.001400
C     -0.040200    1.109300    0.005400
C      1.253200    1.904400   -0.002200
C      2.497600    1.002400   -0.016200
C      3.733700    1.773700   -0.023000
C      4.739000    2.432200   -0.028800
C     -1.255700    1.906800    0.018000
C     -2.248300    2.587600    0.028500
H      1.242400    2.574100   -0.871100
H      1.256900    2.566800    0.872300
H      2.471000    0.336400    0.853300
H      2.456700    0.343800   -0.890900
H      5.637000    2.998800   -0.034400
H     -3.135900    3.172800    0.038200
