16
gdb_9192
C     -0.064200    1.357300   -0.077500
O      0.026400   -0.069400    0.033000
C      0.671100   -0.523900    1.124600
O      1.150100    0.193200    1.967600
C      0.705200   -2.038200    1.136100
C      1.442000   -2.586400    2.368600
C      1.477500   -4.043300    2.386800
C      1.493900   -5.245000    2.379100
H      0.932000    1.804900   -0.116900
H     -0.606300    1.549000   -1.003400
H     -0.603100    1.776600    0.775900
H     -0.324000   -2.410500    1.098600
H      1.179100   -2.383800    0.211300
H      2.460800   -2.183700    2.389900
H      0.958500   -2.209200    3.276500
H      1.517800   -6.306300    2.387000
