16
gdb_4877
C      0.028500    1.552100    0.201700
C     -0.016900    0.042700   -0.096800
C     -1.395200   -0.527200   -0.116500
C     -2.111800   -1.074600   -1.122000
N     -3.357900   -1.438300   -0.610600
C     -3.456300   -1.131300    0.739800
O     -4.390000   -1.315300    1.495600
N     -2.217700   -0.560200    1.014600
H      1.060700    1.914700    0.205700
H     -0.532000    2.113800   -0.551100
H     -0.408200    1.781400    1.179200
H      0.442800   -0.154400   -1.070800
H      0.595600   -0.489700    0.644200
H     -1.842600   -1.235700   -2.151600
H     -4.108600   -1.881800   -1.108200
H     -1.980900   -0.239500    1.936600
