16
gdb_12036
C     -0.095400    1.576300    0.014100
C      0.058100    0.058400    0.059700
N      1.144200   -0.499200   -0.839900
C      1.683000   -1.278900    0.301800
C      2.222200   -0.309800    1.299700
C      0.738800   -0.606700    1.280500
C     -1.226300   -0.598300   -0.207700
N     -2.234400   -1.116800   -0.437500
H      0.864300    2.050200    0.228500
H     -0.425600    1.898200   -0.977400
H     -0.832200    1.911500    0.750100
H      0.742100   -1.099100   -1.553500
H      1.994100   -2.310600    0.201200
H      2.736200   -0.742700    2.151900
H      2.617900    0.641900    0.958400
H      0.203100   -0.989000    2.138500
