14
gdb_11485
O     -0.626600    0.130900   -1.045200
C     -0.007800    1.021200   -0.523400
C      1.392600    1.455600   -0.908400
C      2.420400    0.984200    0.111000
C      3.629600    1.802400    0.378000
N      2.587800    1.659000    1.405500
C     -0.602800    1.784100    0.600100
N     -1.052900    2.414900    1.458800
H      1.605300    1.025100   -1.891400
H      1.419800    2.549500   -0.983300
H      2.502300   -0.098600    0.178300
H      4.572900    1.316200    0.608500
H      3.724400    2.749500   -0.147800
H      2.014700    2.497700    1.459100
