13
gdb_11629
O     -0.040300   -0.028300   -0.143300
C     -0.037300    1.147300    0.024800
C     -0.963700    2.379800    0.052700
C     -0.024100    2.984600    1.127500
C      0.944300    2.374100    0.067300
N     -0.009900    2.986400   -0.975200
C      2.364800    2.446500   -0.020700
C      3.565200    2.467100   -0.087100
H     -2.042200    2.471000   -0.043000
H     -0.014800    4.075300    1.125300
H     -0.024600    2.543800    2.124200
H      0.002400    2.439500   -1.842000
H      4.625600    2.489700   -0.146900
