16
gdb_10040
C      0.112200    1.496500   -0.107200
N     -0.098300    0.064600    0.083400
C      0.642600   -0.501900    1.200600
C      0.176300   -1.958500    1.466300
C     -1.226000   -2.007800    1.858200
C     -2.386400   -2.013400    2.172300
C      2.086500   -0.500100    0.903000
N      3.222500   -0.502500    0.693800
H      1.150900    1.680000   -0.399400
H     -0.530100    1.844700   -0.919800
H     -0.100300    2.103200    0.790100
H     -1.082600   -0.125400    0.244500
H      0.514900    0.070600    2.138700
H      0.336600   -2.542400    0.553600
H      0.804600   -2.396100    2.248900
H     -3.409100   -2.042300    2.457900
