20
gdb_8407
C     -0.030600    1.521900   -0.028400
C     -0.008600    0.005200   -0.010100
C     -1.232800   -0.650700   -0.620200
C      1.329500   -0.687700   -0.184900
C      0.654300   -0.679000    1.155000
C      1.143400   -0.085300    2.473300
O      0.624600   -1.219900    3.201200
C      0.162600   -1.857900    1.990500
H      0.873500    1.946000    0.419100
H     -0.099800    1.898200   -1.055600
H     -0.891900    1.913500    0.525800
H     -1.348800   -0.358700   -1.670400
H     -1.167600   -1.742600   -0.585600
H     -2.147000   -0.354600   -0.092000
H      1.357000   -1.624200   -0.735000
H      2.215800   -0.072200   -0.312300
H      2.232600    0.007900    2.582100
H      0.671800    0.855000    2.789300
H     -0.922600   -2.026500    2.004400
H      0.670000   -2.815800    1.813000
