20
gdb_19532
O      0.771500    0.036100    1.273900
C      0.244500   -0.086700   -0.043300
C     -1.185900   -0.574900   -0.028500
C     -1.943100   -1.190300   -1.184600
C     -1.204300   -1.766100   -2.387700
C     -0.191300   -2.801200   -1.830500
C     -0.655300   -3.137900   -0.387300
C     -1.615700   -2.029800    0.033700
H      0.644900   -0.813400    1.709200
H      0.288000    0.923000   -0.467200
H      0.890300   -0.720700   -0.663600
H     -1.805200    0.074400    0.587600
H     -2.951400   -0.826500   -1.353600
H     -1.937300   -2.259400   -3.036100
H     -0.711900   -1.002300   -2.999500
H     -0.148300   -3.697000   -2.456500
H      0.820200   -2.387700   -1.825000
H     -1.198000   -4.089600   -0.370700
H      0.196400   -3.257800    0.292900
H     -2.385300   -2.287200    0.754000
