13
gdb_3126
O      0.016300    0.086500   -0.601100
C      0.148700    1.000700    0.172400
C      1.274000    1.962600    0.162500
C      1.642500    3.052200    1.184500
C      2.127200    3.954700   -0.002400
C      1.742900    2.825300   -0.966600
O      2.450000    1.660500   -0.590100
H     -0.603500    1.211900    0.966400
H      0.771400    3.468300    1.696100
H      2.392600    2.754300    1.919700
H      1.517200    4.852000   -0.124300
H      3.185100    4.225400   -0.018900
H      1.371800    2.875500   -1.984400
