16
gdb_18337
O     -0.071200    0.009300    0.205100
C     -0.030500    1.194900    0.046800
O     -1.161100    1.941800   -0.116700
C     -0.862200    3.325300   -0.372700
C      0.601800    3.523200    0.018800
C      0.929400    3.632400    1.539700
C      1.794200    2.343100    1.436700
C      1.198800    2.094900    0.022200
H     -1.038800    3.524100   -1.436300
H     -1.556700    3.931400    0.216500
H      1.105600    4.265500   -0.600800
H      1.447500    4.540100    1.854400
H      0.043500    3.506500    2.169000
H      2.863800    2.558400    1.389700
H      1.626700    1.557100    2.175800
H      1.880900    1.770700   -0.765400
