18
gdb_14152
C     -0.081800    1.527600   -0.090100
C     -0.027000    0.032000    0.084500
O      1.250100   -0.602500   -0.087600
C      0.640600   -0.639000    1.206400
C      1.369400    0.040900    2.367300
C      1.144000   -0.947900    3.525100
O      0.978000   -2.220300    2.911600
C      0.200100   -2.000200    1.746700
H      0.764900    2.014700    0.399100
H     -0.056000    1.787300   -1.153500
H     -1.010200    1.930200    0.329700
H     -0.846100   -0.509800   -0.396400
H      2.430400    0.119900    2.115100
H      0.994600    1.043000    2.589400
H      1.985200   -1.016100    4.218300
H      0.242100   -0.676300    4.098900
H     -0.875400   -1.987900    1.994300
H      0.391900   -2.804100    1.032300
