18
gdb_13089
C     -0.126800    1.494400    0.147900
C      0.063900   -0.018000    0.076300
C      1.208800   -0.475800   -0.881100
C      2.151700   -0.615800    0.347800
C      0.897800   -0.622800    1.242600
O      0.983500    0.146900    2.438500
C      0.599100   -0.412000    3.600800
O      0.625600    0.172100    4.641900
H      0.823700    2.017200    0.292900
H     -0.575100    1.860300   -0.781400
H     -0.783000    1.772900    0.977400
H     -0.903100   -0.504400   -0.082900
H      0.998800   -1.436100   -1.358200
H      1.508000    0.238300   -1.651200
H      2.813800   -1.482500    0.400700
H      2.739600    0.288700    0.519700
H      0.571400   -1.640700    1.487000
H      0.264200   -1.461600    3.480700
