18
gdb_11860
C      0.308900    1.554400   -0.361500
O     -0.324100    0.294600   -0.393700
C      0.461700   -0.703900   -0.981600
C      1.653400   -1.291700   -0.153600
C      1.130600   -2.676900   -0.540000
C      1.867200   -3.812900   -1.094800
O      1.299200   -3.853500    0.223800
C     -0.213800   -2.095800   -0.981200
H      1.232000    1.536200    0.237200
H      0.561900    1.907600   -1.373700
H     -0.391400    2.258500    0.093600
H      0.787300   -0.397900   -1.987300
H      2.674000   -1.027600   -0.439000
H      1.505600   -1.099700    0.913700
H      1.390800   -4.464300   -1.827000
H      2.956000   -3.789300   -1.132300
H     -0.951800   -2.149100   -0.175600
H     -0.659300   -2.453800   -1.911300
