16
gdb_3463
C     -0.216900    1.469300   -0.004400
N      0.024100    0.032300    0.040500
C      1.190900   -0.486600   -0.799500
C      2.172700   -0.027200    0.327700
C      0.928700   -0.469200    1.165800
C      0.888200   -1.968700    0.846900
C      1.064800   -1.980400   -0.476300
H      0.662500    2.126000    0.107100
H     -0.693600    1.711300   -0.960700
H     -0.927100    1.726800    0.789000
H      1.263700   -0.161000   -1.837300
H      3.104600   -0.583000    0.456900
H      2.364600    1.047600    0.343800
H      0.727600   -0.125400    2.180600
H      0.726500   -2.774900    1.546900
H      1.090300   -2.799000   -1.180100
