14
gdb_4665
N      0.106600    1.406500    0.134500
C     -0.027500    0.008100    0.043700
C     -1.104800   -0.841400    0.017100
C     -0.593800   -2.181400   -0.006200
C     -1.360700   -3.418500   -0.041500
O     -0.887000   -4.535600   -0.088000
C      0.788100   -2.092800   -0.001500
N      1.114400   -0.772100    0.037400
H      0.338300    1.834900   -0.757400
H     -0.752100    1.828500    0.465500
H     -2.144300   -0.550000   -0.001000
H     -2.465100   -3.270800   -0.021600
H      1.531800   -2.871700   -0.021100
H      2.043800   -0.393900    0.119100
