15
gdb_3001
C     -0.192900    1.368900    0.109900
O     -0.127900   -0.061600    0.136400
C      0.800500   -0.578600    0.969000
O      1.535100    0.095800    1.652300
C      0.790400   -2.061700    0.926000
C      2.123300   -2.766800    1.113800
C      1.119700   -2.791900    2.217300
H      0.761100    1.793600   -0.212900
H     -0.981100    1.617300   -0.601100
H     -0.433000    1.763700    1.100400
H      0.064800   -2.504000    0.256000
H      2.288600   -3.666300    0.532500
H      2.986500   -2.123700    1.237200
H      1.309800   -2.165700    3.080800
H      0.577200   -3.709200    2.414100
