12
gdb_20477
C      0.207300    1.550000    0.106500
O      1.158100    0.543400   -0.217300
C     -0.173200    0.125000    0.069000
C     -0.389500   -0.653400    1.309000
N      0.358100   -0.544900    2.377300
O     -0.227700   -1.445700    3.272500
C     -1.260300   -1.991100    2.631200
N     -1.426300   -1.559100    1.422400
H      0.344900    2.027100    1.074600
H     -0.092900    2.199600   -0.714300
H     -0.743500   -0.250300   -0.777900
H     -1.842500   -2.725900    3.167500
