9
gdb_112
N      0.189200    1.341500    0.007200
C      0.056600    0.082900    0.002200
N     -1.174900   -0.574000    0.009900
C     -2.457000   -0.041900    0.024700
O     -2.755600    1.120200    0.034000
H      1.179300    1.582300   -0.000400
H      0.876300   -0.647100   -0.008700
H     -1.129900   -1.581500    0.004000
H     -3.202200   -0.864800    0.027100
