16
gdb_4848
C     -0.143100    1.361000    0.001100
N      0.101500   -0.072400   -0.002300
C      0.707000   -0.630400    1.086800
N      1.349200   -0.032600    2.043300
C      1.811300   -1.091200    2.828800
C      1.414800   -2.273700    2.313200
C      1.571300   -3.701200    2.678700
O      0.685200   -1.983100    1.163300
H      0.795600    1.879900    0.204200
H     -0.505500    1.658200   -0.985300
H     -0.871200    1.672300    0.762800
H     -0.613300   -0.650900   -0.416500
H      2.395800   -0.916400    3.718900
H      0.603900   -4.187100    2.854000
H      2.085800   -4.269900    1.894900
H      2.160200   -3.779000    3.595800
