16
gdb_6012
C     -0.807100    0.356400    0.687700
C      0.356400    0.151800   -0.244600
O      1.442300    0.664800   -0.080200
C      0.169400   -0.746600   -1.494200
C     -1.046300   -0.295400   -2.325200
O      1.340600   -0.707200   -2.260800
C     -0.042200   -2.197800   -1.015800
O     -1.041700   -2.611500   -0.489700
H     -0.451700    0.764100    1.634900
H     -1.504200    1.071800    0.236100
H     -1.356100   -0.576300    0.838000
H     -0.978700    0.771700   -2.553100
H     -1.048700   -0.845900   -3.269200
H     -1.978500   -0.503000   -1.796100
H      1.961400   -0.156600   -1.752300
H      0.842500   -2.836800   -1.222500
