17
gdb_3386
C     -0.005300    1.459500    0.214000
C      0.008400   -0.016100   -0.202800
C     -1.367300   -0.644100   -0.129200
C     -1.663800   -2.135600   -0.145500
C     -0.662800   -2.883000    0.728900
O     -0.887300   -1.973500    1.840000
C     -1.916100   -1.307500    1.098500
H      0.995900    1.897100    0.152800
H     -0.666400    2.050000   -0.430400
H     -0.358600    1.571200    1.244200
H      0.399200   -0.109600   -1.224000
H      0.691800   -0.567300    0.450300
H     -2.140400   -0.094700   -0.666900
H     -2.355200   -2.592900   -0.840400
H     -0.993200   -3.893500    0.994700
H      0.386700   -2.909900    0.413200
H     -2.818100   -1.030000    1.632700
