16
gdb_16123
N      0.059900   -1.124800   -0.262000
C      0.043700    0.024400   -0.136200
C     -0.027400    1.455300    0.029800
C      0.243300    2.362000   -1.128800
N      1.238900    2.226300   -0.068000
C      1.165500    3.274800    0.970400
C     -0.306000    3.403500    1.426800
C     -0.893700    2.001200    1.165700
H      0.536200    1.930100   -2.080200
H     -0.347900    3.271800   -1.201300
H      1.803200    2.946700    1.797200
H      1.579900    4.208300    0.579100
H     -0.387500    3.697200    2.475500
H     -0.836100    4.160800    0.843000
H     -1.955700    2.021400    0.908500
H     -0.777900    1.353400    2.039900
