19
gdb_7140
C      0.798700    0.756500    0.539300
C     -0.055800    0.415300   -0.683700
N      0.516200   -0.646900   -1.492200
C     -0.033600   -1.881700   -1.584800
O     -1.065900   -2.234400   -1.040600
C      0.744200   -2.864300   -2.461100
O      1.914800   -2.277000   -2.983900
C      2.657400   -3.148000   -3.807100
H      0.899300   -0.112700    1.195600
H      1.803600    1.079500    0.245900
H      0.339500    1.569200    1.111200
H     -1.043800    0.064600   -0.377500
H     -0.195700    1.307600   -1.306600
H      1.385800   -0.501400   -1.982000
H      0.977900   -3.746200   -1.845200
H      0.070600   -3.199800   -3.264800
H      2.990000   -4.040300   -3.255400
H      2.071300   -3.478600   -4.678000
H      3.534700   -2.599200   -4.156900
