15
gdb_14116
N      0.100200    1.172300   -0.525100
C      0.004600    0.023500    0.214000
O      0.924000   -0.390500    0.897800
C     -1.282100   -0.708800    0.092600
C     -1.706400   -1.701200    1.168400
C     -1.469800   -2.197100   -0.206500
O     -2.590700   -1.956500   -1.055800
C     -2.436900   -0.522800   -0.891600
H      0.920800    1.739100   -0.381800
H     -0.708100    1.610800   -0.931100
H     -0.910900   -1.897100    1.879000
H     -2.718700   -1.666900    1.560800
H     -0.749800   -2.950600   -0.502300
H     -3.350900   -0.045000   -0.519000
H     -2.138400   -0.066200   -1.843200
