11
gdb_21398
N     -0.068600    1.143000   -0.446800
C     -0.012500    0.031900    0.147900
N      1.171500   -0.600700    0.607300
C      1.407700   -1.784600    0.199300
N      0.690200   -2.543000   -0.767400
N     -0.565900   -2.569000   -0.797200
C     -1.352900   -1.841500    0.140600
N     -1.187400   -0.647700    0.546100
H      0.872900    1.505900   -0.602500
H      2.324300   -2.287600    0.505500
H     -2.250600   -2.389400    0.424500
