17
gdb_19494
C      0.059600   -1.309600    0.039500
C      0.066800   -0.106600    0.084300
C      0.016400    1.327300    0.076800
C      0.485700    2.179400    1.219100
C      1.325400    1.558300    2.322700
C      2.501600    0.873200    1.585000
C      2.513100    1.524100    0.177300
N      1.218000    2.196600   -0.052600
H      0.056600   -2.371000    0.007600
H     -0.815800    1.718300   -0.505500
H     -0.097100    3.066600    1.454300
H      1.679200    2.355900    2.984100
H      0.755400    0.855000    2.936800
H      3.450900    1.023400    2.105600
H      2.332700   -0.201000    1.511500
H      3.277900    2.304200    0.108500
H      2.705200    0.799400   -0.618900
