18
gdb_20544
C     -0.038600    1.575900    0.179500
C     -0.058100    0.045700    0.016600
C      0.857600   -0.632200    1.051000
C     -1.460200   -0.497400    0.082600
N     -1.990500   -1.126400   -0.965800
N     -3.231400   -1.472800   -0.567400
C     -3.508800   -1.085200    0.699900
C     -2.380500   -0.445100    1.161500
H      0.982100    1.961900    0.086900
H     -0.658600    2.061800   -0.579500
H     -0.419100    1.872900    1.163300
H      0.314900   -0.198000   -0.984600
H      0.516200   -0.430800    2.072600
H      0.875100   -1.717100    0.912000
H      1.883500   -0.258800    0.963300
H     -3.828000   -1.967700   -1.207600
H     -4.462300   -1.290200    1.161100
H     -2.240300   -0.003900    2.135100
