15
gdb_10820
O      0.232800    1.343900    0.289500
C      0.033200   -0.046500    0.053700
C     -1.447400   -0.437000    0.018400
N     -2.042500   -0.059300   -1.256200
C     -1.431900   -0.337000   -2.458300
O     -2.029900   -0.315700   -3.519700
C      0.031700   -0.592100   -2.368100
C      0.716100   -0.463400   -1.228400
H     -0.130700    1.814500   -0.470100
H      0.497100   -0.545400    0.910100
H     -1.535000   -1.519700    0.199400
H     -1.969400    0.084400    0.825100
H     -3.048200    0.012400   -1.315400
H      0.504500   -0.835400   -3.313000
H      1.796300   -0.577500   -1.206500
