13
gdb_20513
C     -0.023800    1.489000   -0.081100
C     -0.025600   -0.017900    0.035700
O     -0.043800   -0.608400    1.094300
C     -0.003000   -0.796700   -1.227000
C      0.001400   -2.141900   -1.453900
C      0.026500   -2.235400   -2.866000
N      0.036300   -1.053100   -3.440500
O      0.017700   -0.137200   -2.403900
H      0.863200    1.828000   -0.626700
H     -0.892500    1.827700   -0.655400
H     -0.040300    1.925800    0.917400
H     -0.011400   -2.925100   -0.715800
H      0.037700   -3.118100   -3.489200
