21
gdb_2721
C      0.012500    1.578000    0.010400
C      0.000100    0.047000    0.002300
C     -1.413300   -0.544900    0.012600
C     -1.434900   -2.077100    0.004600
C     -2.850700   -2.660900    0.015000
C     -2.868100   -4.183300    0.006900
O     -4.223200   -4.609300    0.017600
H      1.034100    1.970900    0.002800
H     -0.506400    1.982500   -0.865900
H     -0.489500    1.973000    0.900800
H      0.539100   -0.319600   -0.881500
H      0.555800   -0.329000    0.871800
H     -1.953800   -0.178800    0.896700
H     -1.970600   -0.169400   -0.857000
H     -0.893700   -2.441500   -0.879900
H     -0.877000   -2.450900    0.874700
H     -3.396400   -2.312600    0.900700
H     -3.413100   -2.303200   -0.856400
H     -2.340700   -4.556300   -0.886900
H     -2.323800   -4.565900    0.886500
H     -4.235900   -5.570600    0.012500
