19
gdb_13762
C     -0.014700    1.428300   -0.274000
C      0.057700   -0.023500    0.218100
C      0.689900   -0.126800    1.612500
C     -1.322600   -0.647200    0.214800
N     -1.858700   -1.081500   -1.076600
C     -1.556600   -2.105400   -0.043300
C     -0.488500   -3.029900   -0.309300
C      0.395900   -3.823400   -0.494600
H      0.983400    1.875300   -0.322100
H     -0.460000    1.477700   -1.272000
H     -0.621300    2.045200    0.400700
H      0.670300   -0.596700   -0.486800
H      0.092200    0.410300    2.359100
H      0.772700   -1.170100    1.932200
H      1.693600    0.310000    1.618500
H     -2.022900   -0.192100    0.917700
H     -2.864400   -0.938700   -1.121000
H     -2.406200   -2.547600    0.473400
H      1.177300   -4.519900   -0.672800
