20
gdb_8457
C     -0.040200    1.519500    0.033700
C      0.030600   -0.004900    0.038700
C      0.955600   -0.614500   -1.067500
C      1.968300   -1.330700   -0.141300
C      3.218400   -1.926900   -0.723000
C      1.049200   -2.052900    0.878700
C      0.809200   -0.578200    1.248300
O      2.196100   -0.297900    0.884200
H      0.963400    1.940800    0.145100
H     -0.466200    1.894900   -0.902700
H     -0.661800    1.892800    0.855400
H     -0.979500   -0.427200   -0.005500
H      0.438200   -1.301800   -1.743000
H      1.448200    0.156700   -1.666400
H      3.796200   -1.163200   -1.254200
H      3.849800   -2.353200    0.061500
H      2.966000   -2.719000   -1.435800
H      0.214300   -2.656900    0.512100
H      1.625300   -2.582100    1.639200
H      0.537900   -0.244000    2.250600
