13
gdb_3397
C      0.016100    1.558500    0.049600
C      0.083700    0.048800    0.057900
C      1.318700   -0.743800   -0.169200
O      2.476000   -0.036600    0.354900
C      1.971000   -0.162000    1.649100
O      2.513100    0.135300    2.661800
C      0.683600   -0.800200    1.201700
H      0.961200    2.001300    0.369900
H     -0.199700    1.920800   -0.960800
H     -0.776900    1.915400    0.713300
H     -0.801900   -0.446800   -0.338300
H      1.510000   -1.517200   -0.899700
H      0.135200   -1.574300    1.718000
