20
gdb_18986
C     -0.162200    1.308900    0.489800
C      1.191700    1.678200   -0.195600
C      1.452100    0.172000   -0.502900
C      0.037800   -0.171200    0.076900
C     -0.410400   -0.643200   -1.345500
C     -0.939700    0.401500   -2.374800
C      0.490000    0.525600   -2.990800
C      1.040400   -0.418000   -1.891800
H     -0.132000    1.440800    1.574800
H     -1.059000    1.813400    0.120300
H      1.111000    2.331000   -1.068000
H      1.926300    2.122200    0.480500
H      2.370000   -0.238800   -0.078500
H     -0.103700   -0.922000    0.857000
H     -0.899100   -1.618600   -1.377500
H     -1.687700    0.000400   -3.063000
H     -1.346000    1.321400   -1.947600
H      0.557000    0.079900   -3.987000
H      0.919900    1.529300   -3.048200
H      1.670500   -1.245200   -2.225300
