16
gdb_17565
O     -0.102000    1.445900    0.029500
C      0.034800    0.076700    0.010600
C     -0.854100   -0.816300    0.830400
C      0.645900   -0.950300    0.944600
O      1.171600   -1.716300   -0.150200
C      0.686000   -0.736600   -1.084600
C      0.265200   -1.074200   -2.471100
C      1.523200   -0.247500   -2.219500
H      0.771900    1.835200   -0.093600
H     -1.318500   -0.303600    1.667800
H     -1.444300   -1.606100    0.373700
H      1.223600   -0.903700    1.859100
H      0.405200   -2.100600   -2.792000
H     -0.608200   -0.579400   -2.883000
H      1.496600    0.810600   -2.462000
H      2.482000   -0.730000   -2.373700
