18
gdb_14393
C     -0.056000    1.595700    0.022500
C      0.086100    0.068800    0.033100
C     -1.128100   -0.625700   -0.580200
C      1.358900   -0.709700   -0.233500
C      2.639600   -0.139200    0.449000
O      2.327100    1.070200    1.154300
C      2.005500   -0.189200    1.761100
C      0.692000   -0.762200    1.146400
H      0.736500    2.076600   -0.552200
H     -1.015100    1.870200   -0.430800
H     -0.027800    2.016300    1.028500
H     -1.268100   -0.305400   -1.618600
H     -1.027500   -1.715500   -0.573000
H     -2.037400   -0.366000   -0.026900
H      1.406300   -1.498400   -0.975000
H      3.665600   -0.286000    0.133500
H      2.400700   -0.385600    2.750500
H      0.164700   -1.596300    1.594000
