18
gdb_16053
C     -0.042100    1.553200    0.039500
C      0.087400    0.045200    0.075900
C      1.321100   -0.732500   -0.221000
C      2.596200   -0.067900    0.315700
C      1.987900   -0.035800    1.753000
C      0.720500   -0.716300    1.229900
C      0.032700   -1.828800    1.886300
O      0.280700   -2.233800    2.999300
H      0.856700    2.059900    0.397800
H     -0.227400    1.893600   -0.984900
H     -0.880600    1.885000    0.660200
H     -0.804000   -0.467200   -0.285600
H      1.304800   -1.570300   -0.908600
H      3.464600   -0.725500    0.250000
H      2.857100    0.893700   -0.136600
H      2.519800   -0.679400    2.454900
H      1.853400    0.946000    2.215000
H     -0.757700   -2.309000    1.261000
