15
gdb_3439
C     -0.072100    1.567900    0.049900
C      0.021000    0.035000    0.004100
C      0.810400   -0.496100   -1.182900
C      1.811300   -1.302300   -0.821100
C      1.875200   -1.398700    0.669000
O      2.134100   -0.124200    1.308800
C      0.779700   -0.566600    1.190000
H      0.927300    1.999000    0.148300
H     -0.533600    1.961400   -0.861100
H     -0.676000    1.897200    0.901300
H     -0.997300   -0.379900   -0.012900
H      0.583200   -0.193100   -2.199800
H      2.509700   -1.796000   -1.485400
H      2.284900   -2.261900    1.184600
H      0.270100   -0.763200    2.130000
