15
gdb_20958
C     -0.079100    1.466900    0.011300
C     -0.005700   -0.047600    0.003200
O     -1.352100   -0.545100    0.011400
C     -1.485700   -1.869600    0.006300
N     -0.469800   -2.723100   -0.005800
N     -1.130500   -3.917700   -0.006200
C     -2.459200   -3.715400    0.005400
N     -2.729700   -2.424800    0.013600
H      0.930600    1.888100    0.005200
H     -0.613700    1.834100   -0.869000
H     -0.599200    1.825300    0.903900
H      0.511800   -0.426200   -0.886100
H      0.525900   -0.435000    0.880300
H     -0.608700   -4.777400   -0.014300
H     -3.181000   -4.518600    0.007400
