18
gdb_8810
C     -0.006700    1.513900    0.061500
C      0.097200   -0.007600    0.000200
C      0.788000   -0.505700   -1.248700
O      1.239800    0.234900   -2.099200
C      0.910300   -2.007900   -1.437100
N      1.656500   -2.345900   -2.533100
N      0.353300   -2.782300   -0.583400
C      0.490500   -4.210600   -0.795800
H      0.982300    1.978700    0.029100
H     -0.576000    1.905100   -0.786100
H     -0.504800    1.825400    0.983700
H      0.641000   -0.415200    0.861200
H     -0.883800   -0.492900    0.054000
H      1.862200   -1.582300   -3.160700
H      1.574300   -3.266500   -2.928200
H      1.545700   -4.523000   -0.842300
H      0.011500   -4.752800    0.022700
H      0.012800   -4.539100   -1.734000
