18
gdb_8924
C     -0.459900    1.151000   -0.005500
O      0.403200    0.031200    0.120100
C      0.805300   -0.574900   -1.098200
C      2.306200   -0.839800   -1.024400
C      0.000800   -1.899400   -1.298600
N      0.006300   -2.799300   -0.147000
C     -1.394500   -1.586100   -1.659100
N     -2.476400   -1.308500   -1.955900
H      0.013400    1.954400   -0.588200
H     -1.415700    0.888700   -0.473200
H     -0.647100    1.516000    1.007100
H      0.593400    0.092600   -1.945200
H      2.543100   -1.484200   -0.172800
H      2.669800   -1.317500   -1.939700
H      2.841600    0.102700   -0.887800
H      0.430600   -2.434500   -2.154500
H      0.926900   -3.213300   -0.044700
H     -0.165700   -2.243200    0.687300
