15
gdb_9480
C      0.182500    1.428600   -0.073200
C      0.028300   -0.082200    0.020000
O      0.812500   -0.778400   -0.976000
C      1.658300   -1.396000    0.020900
C      0.837300   -0.801300    1.172000
O      1.596700    0.004700    2.023900
C     -1.382400   -0.488600   -0.044300
N     -2.490700   -0.817500   -0.052100
H      1.228200    1.698100    0.082400
H     -0.139000    1.768700   -1.060800
H     -0.428400    1.930000    0.683400
H      1.663300   -2.486900   -0.062900
H      2.684000   -1.012900   -0.014100
H      0.230700   -1.528700    1.720100
H      1.065900    0.239500    2.791700
