20
gdb_8176
C     -0.059900    1.510500    0.043300
C      0.017200    0.001800    0.043400
C      0.962200   -0.803600   -0.902500
C      0.719800   -1.939300    0.131900
C      0.672400   -0.815100    1.203500
C     -0.775000   -2.235900   -0.088100
C     -1.306300   -0.765200   -0.147700
O     -2.200100   -0.420200    0.900800
H      0.920800    1.960400    0.229500
H     -0.423000    1.887100   -0.920800
H     -0.750600    1.859400    0.817000
H      0.645000   -0.967800   -1.938300
H      1.984300   -0.417200   -0.881700
H      1.393900   -2.791700    0.219700
H      1.665000   -0.435100    1.458400
H      0.079200   -0.978000    2.106300
H     -0.964500   -2.796200   -1.009100
H     -1.229100   -2.776400    0.748500
H     -1.759500   -0.528700   -1.122100
H     -3.005000   -0.934900    0.790500
