14
gdb_4260
C      0.047300    1.493000   -0.001500
C     -0.072300    0.008800    0.040700
C     -1.160600   -0.735200   -0.192100
C     -1.103600   -2.190100   -0.108600
N     -2.131300   -2.915900   -0.327700
N      0.163200   -2.739200    0.230200
C      1.131800   -1.947500    0.431900
O      1.126900   -0.591500    0.365300
H      0.795200    1.798600   -0.741500
H     -0.911900    1.944200   -0.259600
H      0.373400    1.881200    0.969600
H     -2.102600   -0.267200   -0.446600
H     -1.870200   -3.898100   -0.216700
H      2.124100   -2.305500    0.692600
