18
gdb_13183
C     -0.162600    1.540400    0.044300
C     -0.025200    0.012400   -0.027000
C      0.674600   -0.400100   -1.308800
O      0.309900   -1.281100   -2.043600
C      0.780300   -0.538900    1.159300
C      0.088100   -0.514300    2.543700
O      0.140000   -1.948400    2.648200
C      0.779000   -2.072800    1.360800
H      0.817000    2.027400   -0.021200
H     -0.784900    1.923500   -0.769800
H     -0.622500    1.844300    0.989200
H     -1.012800   -0.462800   -0.033500
H      1.608200    0.175100   -1.522500
H      1.781400   -0.097100    1.168500
H      0.645100   -0.020800    3.349600
H     -0.944100   -0.138300    2.544300
H      0.166400   -2.635100    0.645400
H      1.764600   -2.547600    1.436000
