17
gdb_20838
C      0.065600    1.471500   -0.396200
C     -0.041600    0.080900    0.253300
C     -1.412000   -0.512200    0.141400
N     -2.374400   -0.255300    1.035500
N     -3.431300   -0.914600    0.572300
C     -4.684800   -0.960900    1.295200
N     -3.239100   -1.594400   -0.551100
C     -1.960900   -1.348800   -0.845400
H      1.078900    1.871900   -0.293100
H     -0.175900    1.427700   -1.462900
H     -0.629500    2.171700    0.076000
H      0.680100   -0.599000   -0.213000
H      0.225800    0.151100    1.312500
H     -4.898500    0.029500    1.699100
H     -5.463500   -1.262800    0.595800
H     -4.631800   -1.680900    2.117800
H     -1.505100   -1.768900   -1.728300
