17
gdb_2100
O      0.133600    1.414200    0.144800
C      0.053000   -0.006300    0.033200
C     -1.396700   -0.506600    0.068600
C     -1.469100   -1.998800   -0.275900
C     -0.936600   -2.263000   -1.693300
C      0.321300   -1.483200   -1.979000
C      0.769800   -0.497600   -1.201400
H     -0.255100    1.784700   -0.655700
H      0.580300   -0.367400    0.927300
H     -1.834000   -0.299200    1.050100
H     -1.977700    0.067100   -0.667800
H     -0.865800   -2.564100    0.446200
H     -2.496000   -2.366700   -0.180700
H     -0.748000   -3.334300   -1.837600
H     -1.701200   -2.000900   -2.440600
H      0.880100   -1.761100   -2.870400
H      1.694700    0.023300   -1.439000
