15
gdb_5395
C      0.001100    1.444900   -0.091400
N     -0.042900    0.012400    0.088400
C      0.614300   -0.659300    1.078700
N      0.621000   -1.998300    0.988200
C      1.237900   -2.659000    1.965800
C      1.854300   -2.016600    3.033500
N      1.859000   -0.681700    3.124200
C      1.249400   -0.006000    2.160600
H      1.023500    1.826200   -0.227700
H     -0.580400    1.704800   -0.977700
H     -0.444400    1.968500    0.763100
H     -0.336400   -0.567900   -0.680500
H      1.241800   -3.744200    1.891400
H      2.352100   -2.574400    3.820300
H      1.257000    1.077200    2.235800
