18
gdb_6812
C     -0.195700    1.547900   -0.023200
C     -0.045800    0.029300   -0.026900
C     -1.354700   -0.670200   -0.374600
C      1.215800   -0.458700   -0.782400
O      1.897500   -0.782100    0.447100
C      0.700000   -0.553900    1.227500
C      0.909100    0.286100    2.392700
C      1.064800    0.976500    3.364700
H      0.746000    2.040800    0.233000
H     -0.508600    1.898600   -1.013000
H     -0.948300    1.868900    0.703800
H     -1.709500   -0.362600   -1.364500
H     -1.238800   -1.758800   -0.383000
H     -2.137700   -0.419100    0.349600
H      1.060800   -1.347800   -1.408400
H      1.758000    0.297900   -1.361300
H      0.264400   -1.511900    1.548300
H      1.210400    1.584000    4.223700
