15
gdb_7299
N     -1.049200    1.080700   -0.057300
C     -0.284200   -0.030300    0.023400
O      0.937200   -0.014200    0.055900
C     -1.016300   -1.388500    0.041100
O     -0.054200   -2.401400    0.060200
C     -1.946900   -1.556300    1.274800
C     -3.166000   -0.759800    1.221000
C     -4.165700   -0.094400    1.138200
H     -0.590800    1.975300    0.012100
H     -2.048500    1.030400    0.071400
H     -1.636100   -1.460900   -0.865600
H      0.796700   -1.925400    0.072400
H     -2.204300   -2.620000    1.320700
H     -1.378500   -1.332400    2.185100
H     -5.066300    0.467100    1.091200
