14
gdb_1960
O      0.290200    1.298100   -0.411600
C      0.013700   -0.007100    0.020400
C      0.108600   -0.281900    1.560400
N     -1.314100   -0.622400    1.526600
C     -1.510600   -0.271700    0.121000
C     -2.206800   -1.012100    2.460900
O     -3.389000   -1.192700    2.249700
H      1.243300    1.400300   -0.498100
H      0.546400   -0.756700   -0.576000
H      0.769200   -1.098500    1.871500
H      0.340200    0.623400    2.133900
H     -2.106600    0.634700   -0.027600
H     -1.914900   -1.080100   -0.494200
H     -1.729700   -1.160200    3.452200
