12
gdb_12309
O     -0.045900    0.141600    0.609100
C     -0.042000    1.234300    0.114900
C     -1.312800    1.942600   -0.340300
O     -1.025000    3.115700   -1.081300
C     -0.114400    3.914700   -0.410500
O      1.194000    3.324900   -0.364700
C      1.296800    2.004700   -0.080500
O      2.358000    1.463700   -0.001400
H     -1.895100    1.274600   -0.979300
H     -1.915900    2.172200    0.553700
H      0.002500    4.843100   -0.968900
H     -0.440000    4.123700    0.621000
