17
gdb_17590
C      0.035300    1.510500   -0.000900
C     -0.064700    0.025000    0.103800
O      1.072900   -0.783000   -0.257200
C      0.522500   -0.944400    1.065000
C      1.410600   -0.759800    2.250400
C     -0.712600   -1.825500    0.932600
N     -1.864900   -0.976100    1.342700
C     -1.300700   -0.854800   -0.030000
H      0.984300    1.866100    0.408900
H     -0.022100    1.834500   -1.046200
H     -0.786100    1.980000    0.548800
H      2.037100    0.128200    2.132100
H      0.806800   -0.649300    3.156200
H      2.072500   -1.623100    2.382500
H     -0.777000   -2.906500    0.925500
H     -2.704900   -1.553600    1.273400
H     -1.898500   -1.055100   -0.910400
