18
gdb_19931
C      0.031100    1.526800    0.294800
C      1.316500    0.806400    0.001200
C      2.199500    0.362700    1.168200
C      1.370300   -0.644900    1.994200
C      0.501800   -0.142100    3.165600
O     -0.717100   -0.338300    2.420100
C      0.010500   -0.848500    1.269100
C      0.002100    0.040300    0.037800
H     -0.180000    1.861600    1.304300
H     -0.368800    2.171700   -0.480100
H      1.802000    1.010300   -0.947200
H      3.100500   -0.122300    0.778500
H      2.537600    1.207600    1.780200
H      1.934100   -1.550500    2.222200
H      0.527500   -0.766300    4.067600
H      0.647500    0.906800    3.457700
H     -0.299100   -1.873500    1.039500
H     -0.464400   -0.328100   -0.868300
