9
gdb_21434
N     -0.198200    1.273300    0.011500
C     -0.027600    0.039900    0.003100
O      1.137400   -0.698100   -0.007300
N      0.819700   -2.063500   -0.013800
C     -0.464900   -2.082000   -0.006800
O     -1.065100   -0.871200    0.003500
C     -1.259900   -3.258600   -0.009500
N     -1.915200   -4.210100   -0.011600
H      0.682000    1.781400    0.010000
