19
gdb_19152
C     -0.354200    1.750700   -0.142300
C     -0.447800    0.224200   -0.202000
C      0.546000   -0.500400   -1.105100
C      1.121300    0.140800   -2.317500
N      1.963500   -0.112100   -1.132100
C      0.304400   -1.984400   -1.138000
C      1.392100   -2.966200   -1.118700
O      0.618800   -2.706200    0.057700
H      0.636200    2.096200    0.175000
H     -0.581100    2.215300   -1.106700
H     -1.072700    2.140100    0.584600
H     -0.326200   -0.191300    0.806000
H     -1.459600   -0.059200   -0.520700
H      1.366300   -0.466500   -3.185000
H      0.842800    1.164400   -2.549100
H      2.099600    0.751700   -0.613600
H     -0.648200   -2.274900   -1.587200
H      1.236800   -3.946000   -1.569300
H      2.415600   -2.603300   -1.087300
