18
gdb_2014
C      0.032600    1.542600    0.035800
C     -0.026500    0.011000   -0.006500
C     -1.436900   -0.531800    0.017400
C     -2.603800   -0.299900   -0.979300
N     -3.255700   -1.240700    0.048100
C     -1.920400   -2.001600   -0.013500
C     -2.544300   -0.363000    1.091600
H      1.066900    1.898500    0.017300
H     -0.487000    1.983200   -0.821600
H     -0.437900    1.932600    0.944600
H      0.479100   -0.355400   -0.909700
H      0.528100   -0.405700    0.844700
H     -3.067900    0.690000   -1.016300
H     -2.522000   -0.736800   -1.979300
H     -1.784800   -2.570300   -0.938500
H     -1.733000   -2.625300    0.865900
H     -2.406000   -0.859800    2.056800
H     -3.003800    0.621900    1.215500
