17
gdb_7657
N     -0.328800    1.873300    0.231300
H      0.101000    1.224800   -0.433700
H      0.353700    2.602100    0.453000
H     -1.133100    2.311300   -0.224300
C     -0.762000    1.121300    1.505000
C     -1.650500   -0.108600    1.316000
C     -0.886400   -0.689200    2.555000
C      0.300200    0.272800    2.204700
C     -1.587300   -0.257700    3.908500
O     -1.776800   -1.168800    4.716100
O     -1.854200    0.973200    3.965500
H     -1.217700    1.825900    2.202700
H     -2.727200    0.039600    1.403300
H     -1.412300   -0.654100    0.391600
H     -0.669700   -1.755900    2.537300
H      1.003300   -0.181800    1.492000
H      0.841700    0.737500    3.029200
