18
gdb_11311
C     -0.061100    1.576000    0.004000
C      0.038100    0.046300    0.016800
C      0.789100   -0.558700   -1.203100
C      1.536300   -1.804700   -0.666400
C      1.623100   -1.526500    0.818400
C      2.463200   -2.286900    1.744800
O      3.172300   -3.214400    1.419400
C      0.807100   -0.526300    1.182400
H      0.934700    2.031600   -0.011600
H     -0.603000    1.921500   -0.882200
H     -0.590700    1.950800    0.886200
H     -0.986900   -0.356200    0.059600
H      0.120300   -0.785800   -2.037000
H      1.517900    0.176200   -1.563800
H      0.974300   -2.730900   -0.842900
H      2.519400   -1.952800   -1.121500
H      2.411100   -1.946800    2.803900
H      0.679100   -0.175000    2.202500
