20
gdb_10921
C     -0.418600    1.549500    0.353700
C     -0.124200    0.061400    0.194200
C      0.250100   -0.470300   -1.197300
C      1.589500    0.087400   -1.638600
C      1.572800   -1.019900   -0.643300
O      2.272400   -2.180500   -0.925900
C      1.227900   -0.534400    0.769500
C      2.224200    0.346000    1.515300
H      0.371700    2.177200   -0.068300
H     -1.352100    1.811500   -0.156400
H     -0.530300    1.821500    1.409100
H     -0.966800   -0.506900    0.601400
H     -0.438800   -0.903400   -1.913100
H      1.895700   -0.235400   -2.628500
H      1.904800    1.096300   -1.384000
H      1.839100   -2.909700   -0.467900
H      0.982600   -1.401400    1.396200
H      2.514400    1.224500    0.931600
H      1.809600    0.700100    2.465500
H      3.137200   -0.216000    1.739500
