18
gdb_20184
C     -0.005300    1.583200    0.009200
C      1.524700    1.595600   -0.078200
C      2.193400    0.724400    0.963400
C      1.694600    0.434700    2.367700
O      0.290300    0.267400    2.471700
C     -0.272800   -0.548100    1.455100
C      0.035000    0.018000    0.072000
C      1.551400    0.071000   -0.222900
H     -0.472600    2.103200    0.848300
H     -0.454500    1.927400   -0.925900
H      2.106600    2.327200   -0.627200
H      3.279100    0.771400    0.910200
H      2.208500   -0.474100    2.730200
H      1.945200    1.250900    3.054300
H      0.096300   -1.585600    1.533900
H     -1.349500   -0.554700    1.653700
H     -0.561400   -0.476400   -0.697300
H      2.085400   -0.550700   -0.931200
