15
gdb_13953
N     -0.757800    0.026300    1.366500
C     -0.206100    0.390900    0.419300
C      0.504500    0.871000   -0.762100
C      1.649000    1.789700   -0.416600
C      2.567100    1.723900    0.760200
C      1.818300    3.012000    0.454700
C      2.422100    3.648600   -0.791000
O      2.300600    2.399500   -1.534400
H      0.887200    0.009000   -1.323800
H     -0.200400    1.391300   -1.420700
H      2.190400    1.186200    1.624400
H      3.638900    1.653000    0.595000
H      1.143300    3.481600    1.156600
H      1.794400    4.422800   -1.244600
H      3.460200    3.994800   -0.734100
