13
gdb_10798
O      0.030300    0.045600    0.574600
C     -0.010000    1.136400    0.069000
C     -1.307700    1.827600   -0.328000
N     -1.073500    3.247300   -0.546100
C     -0.020100    3.697700   -1.312100
O     -0.006600    4.734300   -1.918800
O      1.053900    2.854600   -1.329600
C      1.231400    1.965000   -0.227400
H     -1.700000    1.315800   -1.221200
H     -2.036900    1.687000    0.474000
H     -1.886100    3.840400   -0.627100
H      1.494600    2.529300    0.679000
H      2.065700    1.308900   -0.479000
