11
gdb_4636
N     -0.100600    1.281400    0.010400
C     -0.021500    0.034200    0.003000
O      1.135300   -0.748000   -0.007000
C      0.729100   -2.045700   -0.012400
C     -0.611200   -2.096600   -0.006200
O     -1.094700   -0.802500    0.003400
C     -1.507200   -3.243500   -0.008400
O     -2.712900   -3.181400   -0.002200
H      0.819200    1.712800    0.008400
H      1.487700   -2.810100   -0.020400
H     -0.957700   -4.209400   -0.016500
