17
gdb_16805
C     -0.027400    1.507100    0.068000
C     -0.050900    0.014800   -0.018200
C     -0.094300   -0.753500   -1.111100
C     -0.037200   -2.243400   -0.801800
O      1.078600   -2.890400   -1.392600
C      0.015300   -2.259400    0.731700
N      1.288300   -1.676400    1.218600
C      0.033700   -0.859600    1.201600
H      0.894600    1.857100    0.549100
H     -0.093700    1.967600   -0.921100
H     -0.860300    1.884500    0.674900
H     -0.082200   -0.392700   -2.133900
H     -0.918500   -2.777000   -1.176400
H      1.845000   -2.540200   -0.916700
H     -0.440700   -3.067300    1.292000
H      1.455000   -2.011100    2.166300
H     -0.392500   -0.549100    2.150100
