15
gdb_4966
C      0.029000    1.514800    0.049100
C      0.024600    0.008600    0.012500
C     -0.045700   -0.711300   -1.179600
C     -0.046300   -2.101200   -1.155700
N      0.018300   -2.811700   -0.025800
C      0.085800   -2.136400    1.118700
C      0.092100   -0.741600    1.192900
O      0.164900   -0.179500    2.431900
H      0.942800    1.909500    0.512700
H     -0.029000    1.930300   -0.959200
H     -0.823800    1.912100    0.615300
H     -0.099900   -0.183000   -2.126600
H     -0.101000   -2.667600   -2.081400
H      0.138600   -2.708700    2.041600
H      0.161800    0.779500    2.353200
