17
gdb_3319
C     -0.033400    1.500300   -0.147400
C      0.026200    0.010000    0.203800
C     -1.334700   -0.656100    0.120800
O     -1.942100   -0.596400   -1.210700
C     -2.202400   -2.000800   -1.165200
C     -0.928700   -2.780900   -1.133000
C     -1.479400   -2.179700    0.147500
H      0.958500    1.958700   -0.095700
H     -0.422700    1.638100   -1.160000
H     -0.690100    2.044400    0.540600
H      0.725600   -0.504100   -0.464500
H      0.405900   -0.126000    1.225400
H     -2.027700   -0.188900    0.834800
H     -3.158600   -2.353000   -1.534000
H     -1.038800   -3.859400   -1.194900
H     -0.041300   -2.381500   -1.614600
H     -1.729400   -2.773500    1.016000
