14
gdb_7704
O     -0.063400   -0.106100    0.004400
C     -0.035400    1.097500   -0.049400
C     -1.304300    1.944400   -0.008700
C     -1.245200    3.121000   -0.942500
C     -0.121500    3.582400   -1.505400
C      1.201300    2.973800   -1.257900
O      2.197900    3.310300   -1.858500
C      1.251400    1.892700   -0.171300
H     -2.163900    1.302400   -0.223900
H     -1.441700    2.302500    1.023900
H     -2.194900    3.597400   -1.173100
H     -0.131900    4.419100   -2.196000
H      1.398200    2.424400    0.781400
H      2.106300    1.234500   -0.329900
