18
gdb_18864
C      0.215200    1.513900    0.269500
C      0.014100    0.026000    0.048100
C      0.709500   -0.744000   -1.146100
C      2.110200   -1.459600   -0.923900
C      3.070000   -1.149700    0.240500
C      2.050200   -0.669500    1.270800
C      0.810300   -1.010800    0.865700
C      0.860600   -1.987800   -0.323500
H      1.275800    1.782000    0.262000
H     -0.287900    2.086300   -0.517600
H     -0.208300    1.831300    1.228800
H     -1.057300   -0.201900   -0.030800
H      0.339300   -0.695300   -2.168600
H      2.499500   -1.890400   -1.845500
H      3.669600   -2.039000    0.484800
H      3.777900   -0.333600    0.048500
H      2.250100    0.229600    1.846100
H      0.386900   -2.956100   -0.415600
