22
gdb_5996
C     -0.057500    1.339400   -0.133200
O      0.068400   -0.056300    0.012200
C      0.742500   -0.554100    1.180300
C      2.169900    0.010900    1.292300
C     -0.059800   -0.226800    2.450500
C      0.757400   -2.080400    0.971700
C      1.496200   -2.566800   -0.278200
O      1.413600   -3.978800   -0.425900
H      0.913300    1.846800   -0.221800
H     -0.614500    1.503700   -1.059600
H     -0.617400    1.805600    0.689700
H      2.165900    1.064400    1.586500
H      2.733500   -0.537900    2.052800
H      2.704400   -0.074100    0.342300
H     -1.086900   -0.591800    2.356700
H      0.397500   -0.703700    3.322900
H     -0.092000    0.848900    2.646400
H      1.193100   -2.562600    1.853800
H     -0.287300   -2.413200    0.907000
H      1.111600   -2.042600   -1.162600
H      2.566300   -2.349300   -0.205600
H      0.488000   -4.201500   -0.567500
