18
gdb_11546
C      0.110700    1.336000    0.157400
N     -0.251700    0.030600   -0.363200
C      0.675500   -0.704600   -1.078100
O      1.744400   -0.259200   -1.451500
N      0.263700   -2.007400   -1.337800
C      1.022900   -2.804700   -2.257300
C      2.208100   -3.566300   -1.734900
C      0.941400   -4.299900   -2.100700
H      0.848500    1.769300   -0.518200
H     -0.770700    1.982900    0.194700
H      0.554700    1.287000    1.161000
H     -0.939300   -0.489200    0.159100
H     -0.734600   -2.159700   -1.356800
H      1.106700   -2.409900   -3.267600
H      3.071900   -3.659200   -2.382500
H      2.437300   -3.452800   -0.682500
H      0.332900   -4.682700   -1.288600
H      0.925800   -4.904900   -3.000000
