11
gdb_20481
C      0.041800    1.395900   -0.126300
O      1.441900    1.805100    0.035500
C      1.966100    0.700800    0.594200
C      1.145700   -0.363700    0.592500
O     -0.047600   -0.035400   -0.024800
C      1.924700   -1.387200    1.150100
N      3.133100   -0.934500    1.472200
O      3.153800    0.455900    1.094500
H     -0.534300    1.864200    0.682700
H     -0.300300    1.716500   -1.110900
H      1.702800   -2.424900    1.349600
