19
gdb_9358
C      0.000400    1.446600   -0.138100
N     -0.154500    0.009400   -0.245600
C     -1.168000   -0.670100    0.367800
O     -2.026100   -0.119500    1.035200
C     -1.134000   -2.185800    0.176600
C     -2.537900   -2.766300   -0.014000
C     -2.549000   -4.288300    0.003500
O     -3.884800   -4.715500   -0.210800
H      0.950900    1.713400    0.337800
H     -0.045600    1.928200   -1.121300
H     -0.821700    1.813600    0.477200
H      0.515200   -0.510600   -0.786900
H     -0.477800   -2.462100   -0.657900
H     -0.680400   -2.608400    1.083900
H     -3.187800   -2.384400    0.777800
H     -2.962900   -2.422700   -0.964100
H     -1.876200   -4.680200   -0.778500
H     -2.163100   -4.650100    0.971500
H     -3.901400   -5.676500   -0.187000
