17
gdb_8321
N     -0.012800    1.157400    0.717000
C     -0.054900    0.062200    0.108600
C     -1.150400   -0.906200   -0.278800
C      0.008000   -1.717100   -0.898400
C      0.270300   -3.181000   -0.502800
C     -0.224000   -3.593900   -1.919100
C      0.003700   -2.126100   -2.381900
O      0.953300   -0.692200   -0.457100
H      0.944800    1.508100    0.777900
H     -1.665200   -1.373800    0.562800
H     -1.884600   -0.507500   -0.981400
H      1.343300   -3.353200   -0.381700
H     -0.254700   -3.572200    0.371800
H      0.340400   -4.371400   -2.435600
H     -1.281800   -3.868100   -1.922900
H     -0.737900   -1.659900   -3.034800
H      0.998100   -1.987300   -2.815100
