20
gdb_6413
C      0.030100    1.533000   -0.069700
C      0.013000    0.009000    0.017700
O      0.652900   -0.569000   -1.133700
C      0.746400   -0.525200    1.249100
C      0.711900   -2.052700    1.371100
O      1.518400   -2.687900    0.386600
C      1.253700   -2.546300    2.711800
O      1.282400   -3.956800    2.758300
H      1.059400    1.902500   -0.106600
H     -0.489800    1.878800   -0.970500
H     -0.471400    1.979300    0.795000
H     -1.031700   -0.339400    0.059400
H      0.145800   -0.334000   -1.916900
H      1.791400   -0.192800    1.219200
H      0.283200   -0.079900    2.138100
H     -0.333800   -2.397500    1.281100
H      1.322000   -2.256000   -0.456100
H      2.258200   -2.116800    2.866700
H      0.609900   -2.205200    3.529900
H      1.662100   -4.229500    1.913500
