20
gdb_11405
C      0.113900    1.324000    0.134200
O     -0.195700   -0.018200   -0.156300
C      0.579000   -0.568600   -1.201800
C      2.068200   -0.845400   -0.842500
C      2.335300   -2.164700   -1.521500
C      1.219800   -2.769000   -1.938500
C      1.105100   -4.100500   -2.609600
C     -0.001100   -1.939400   -1.604500
H      1.141700    1.445800    0.507800
H     -0.007000    1.969800   -0.750700
H     -0.580000    1.657300    0.910200
H      0.548000    0.110300   -2.069900
H      2.741900   -0.046000   -1.171400
H      2.176600   -0.924200    0.249100
H      3.333200   -2.580400   -1.620100
H      2.084400   -4.563500   -2.759400
H      0.489200   -4.790500   -2.018100
H      0.615400   -4.011800   -3.588000
H     -0.551900   -2.365800   -0.754600
H     -0.713800   -1.865700   -2.434100
