20
gdb_9964
C     -0.232300    1.561300   -0.076900
C      0.090100    0.068400    0.068900
C      0.727000   -0.517000   -1.176100
O      1.946900    0.080800   -1.550900
C      0.698300   -1.997200   -1.474700
C      0.041400   -3.015900   -0.569400
C     -0.128300   -1.024900   -2.310600
O     -1.516900   -0.961200   -2.141200
H      0.671800    2.150800   -0.266300
H     -0.934300    1.729600   -0.900000
H     -0.685700    1.954000    0.837800
H      0.774300   -0.083800    0.912800
H     -0.830800   -0.474400    0.292600
H      1.753200    0.967600   -1.874300
H      1.603900   -2.338800   -1.968500
H     -0.953900   -2.695000   -0.252800
H     -0.070300   -3.974800   -1.088000
H      0.639900   -3.197400    0.329500
H      0.225700   -0.810400   -3.319200
H     -1.903600   -1.751800   -2.532700
