19
gdb_4033
C     -0.827300    0.930400    0.063300
C      0.142300   -0.252600   -0.127400
C      1.153600    0.026000   -1.251800
O      0.514500    0.198600   -2.510700
C      0.801800   -0.619300    1.184500
C     -0.025900   -1.237900    2.281300
N      2.051600   -0.377000    1.298900
O      2.539900   -0.748500    2.563700
H     -0.280000    1.836400    0.347100
H     -1.374600    1.126000   -0.863800
H     -1.567900    0.728900    0.842400
H     -0.454600   -1.120100   -0.444500
H      1.778800    0.890600   -0.994100
H      1.823200   -0.830800   -1.362000
H      0.165900    1.093300   -2.549200
H     -0.049800   -0.588000    3.162400
H     -1.049700   -1.426000    1.952700
H      0.425500   -2.180700    2.605500
H      3.474500   -0.528300    2.491200
