14
gdb_17511
N      0.050600   -1.173700    0.047000
C      0.025500   -0.019100   -0.002600
C     -0.044700    1.420700   -0.062800
C     -1.127500    2.210000    0.747200
C     -0.931700    3.309500   -0.290700
C      0.567400    3.255700   -0.678600
N      1.230000    2.187400    0.073200
C     -0.407900    2.324300   -1.317000
H     -2.109700    1.741400    0.657000
H     -0.896900    2.405600    1.800600
H     -1.545200    4.183100   -0.464200
H      1.103400    4.092400   -1.105700
H      1.441900    2.419200    1.046100
H     -0.657900    2.088100   -2.339800
