17
gdb_16110
C     -0.015700   -1.194600    0.302400
C      0.018200   -0.004400    0.134500
C      0.035800    1.409100   -0.118600
C     -0.828500    1.957500   -1.256200
C     -0.279500    3.376700   -1.530100
C      1.208800    3.326000   -1.108100
C      1.265700    2.265600   -0.022600
N      0.265100    2.296400    1.046300
H     -0.037800   -2.243100    0.467900
H     -0.698800    1.309900   -2.130100
H     -1.894900    1.953700   -1.008300
H     -0.405100    3.672400   -2.574200
H     -0.820900    4.119400   -0.935500
H      1.842500    3.009200   -1.944900
H      1.583300    4.299000   -0.771600
H      2.224500    1.846400    0.266600
H     -0.323900    3.124400    0.985600
