16
gdb_12901
C     -0.066500    1.509500    0.036400
C      0.034200    0.021200    0.097200
O     -1.171200   -0.731800   -0.033800
C     -0.688000   -1.704100    0.935500
C      0.645600   -0.979800    1.047500
C      1.229100   -0.802300   -0.359100
C      1.158400   -1.812400   -1.372900
C      1.100400   -2.664300   -2.220400
H      0.909300    1.970300    0.212800
H     -0.419000    1.825000   -0.951700
H     -0.772500    1.881600    0.785200
H     -1.287600   -1.660400    1.850700
H     -0.679000   -2.721500    0.531500
H      1.246400   -0.856300    1.938800
H      2.155000   -0.231300   -0.340900
H      1.044300   -3.408100   -2.975800
