13
gdb_5460
N      0.071100    1.392500    0.161600
C      0.005900    0.016200    0.054700
C     -1.130000   -0.786500    0.021700
N     -0.620100   -2.088100   -0.018600
C      0.725900   -1.996300   -0.013200
N      1.141100   -0.743700    0.028900
C     -2.493400   -0.471700    0.022900
C     -3.665200   -0.179000    0.013500
H      0.943600    1.769100   -0.180800
H     -0.733800    1.880200   -0.204700
H     -1.174900   -2.926500   -0.050100
H      1.366200   -2.865000   -0.042900
H     -4.694800    0.078600    0.025900
