16
gdb_16395
O      0.038500    1.382200   -0.040000
C      0.031100   -0.032100    0.007600
C     -1.385600   -0.591100   -0.224200
C     -1.175300   -2.033000   -0.721500
C     -0.589100   -1.221700   -1.897700
O     -1.585200   -0.170900   -1.614200
C      0.705300   -0.644200   -1.288600
O      1.330000    0.320700   -2.086300
H     -0.610800    1.610700   -0.723200
H      0.502300   -0.331300    0.945100
H     -2.179500   -0.280400    0.455300
H     -0.519100   -2.702200   -0.158900
H     -2.117800   -2.517400   -0.975700
H     -0.579700   -1.551600   -2.935000
H      1.414500   -1.446200   -1.045100
H      1.279600    1.148700   -1.585900
