10
gdb_337
O      0.017100    1.509500    0.095500
C      0.018800    0.110100    0.080400
C      0.683700   -0.410300   -1.201200
O      1.140500    0.351200   -2.013300
C      0.716300   -0.488800    1.224100
C      1.305500   -1.003200    2.136100
H      0.539300    1.775200   -0.679200
H     -1.019600   -0.265800    0.070600
H      0.724000   -1.509500   -1.318700
H      1.816500   -1.444700    2.956300
