18
gdb_17930
C     -0.114000    1.634900   -0.284300
C     -0.101600    0.162000   -0.011400
C      0.489000   -0.994800   -0.770300
C      1.549300   -1.273300    0.358500
C      0.486400   -0.574800    1.217400
C     -0.430300   -1.369200    1.805500
C     -1.656000   -1.483100    0.903300
C     -1.052500   -0.913200   -0.394200
H      0.881400    2.075800   -0.157800
H     -0.442200    1.837800   -1.309300
H     -0.795200    2.161500    0.394000
H      0.737700   -0.998700   -1.830200
H      1.802700   -2.302300    0.629700
H      2.461500   -0.707800    0.134400
H     -0.146700   -2.206900    2.437600
H     -1.944000   -2.540400    0.848500
H     -2.560400   -0.923900    1.185100
H     -1.681400   -0.790500   -1.275900
