18
gdb_16896
C      0.155400    1.581400    0.001500
C     -0.024200    0.057100    0.016200
C      0.523400   -0.574800   -1.282700
C      0.706200   -2.085100   -1.200400
O      2.031700   -2.542700   -0.903100
C      1.007500   -2.694000    0.101800
C      1.074800   -1.807300    1.291300
C      0.597800   -0.563000    1.249100
H      1.217700    1.848900   -0.019300
H     -0.319500    2.022900   -0.880600
H     -0.290100    2.042400    0.889200
H     -1.106400   -0.143700    0.064600
H     -0.136600   -0.320100   -2.118900
H      1.504200   -0.138800   -1.504500
H      0.195000   -2.685500   -1.952300
H      0.729800   -3.732200    0.283900
H      1.506100   -2.210000    2.203300
H      0.631600    0.058500    2.141900
