16
gdb_11780
O     -0.367100    0.359400   -0.596200
C      0.088000    1.097700    0.241100
C      1.330300    1.906400    0.026100
C      2.712700    1.281000   -0.326200
C      3.017500    2.774400   -0.661000
C      1.551500    2.849500   -1.191000
C      2.835000    3.404200    0.727200
O      1.619900    2.741000    1.156000
H     -0.384300    1.227300    1.238600
H      3.256100    0.806300    0.493900
H      2.671400    0.638400   -1.205300
H      3.878300    3.085500   -1.251100
H      1.407900    2.344100   -2.145600
H      1.033200    3.810700   -1.163400
H      3.650100    3.176400    1.423100
H      2.678500    4.488400    0.699800
