17
gdb_2695
C     -0.031300    1.515700    0.036800
C      0.016600   -0.013000   -0.022600
C      0.726000   -0.523500   -1.268300
O      0.724600   -1.937700   -1.242300
C      1.366400   -2.498700   -2.368100
C      1.336000   -3.953700   -2.289900
C      1.325900   -5.153800   -2.251700
H      0.975600    1.947600    0.045200
H     -0.563500    1.933200   -0.825200
H     -0.545200    1.856600    0.939900
H      0.531300   -0.413000    0.858300
H     -0.997800   -0.427300   -0.006700
H      0.218500   -0.157200   -2.178400
H      1.762200   -0.142800   -1.305200
H      0.874300   -2.168500   -3.299800
H      2.413600   -2.153900   -2.429500
H      1.313100   -6.214800   -2.211100
