15
gdb_10157
C     -0.080100    1.344700   -0.091200
O     -0.018300   -0.063400   -0.009600
C      0.563600   -0.650600   -1.143900
C      0.628200   -2.161800   -0.893200
C      1.021700   -2.952100   -2.152200
O      1.045800   -2.468700   -3.249800
C      1.520800   -2.518500    0.209900
N      2.253800   -2.831600    1.046200
H      0.922700    1.788800   -0.179100
H     -0.683200    1.674900   -0.950600
H     -0.547000    1.700100    0.829500
H     -0.031900   -0.471600   -2.050400
H      1.575200   -0.258100   -1.329600
H     -0.382000   -2.503000   -0.618600
H      1.266400   -4.018000   -1.967400
