10
gdb_3894
O      0.048400   -0.059900    0.002600
C     -0.026600    1.156800    0.010000
C     -1.239100    1.951000    0.030300
C     -1.130600    3.292700    0.035900
O      0.025300    3.975800    0.024100
N      1.240600    3.296600    0.004300
C      1.186200    2.012600   -0.001700
H     -2.210300    1.473400    0.040700
H     -1.968100    3.982200    0.050700
H      2.156600    1.522300   -0.017200
