16
gdb_19561
C      0.027900    1.493500   -0.009400
N      1.273400    0.672900    0.048200
C     -0.007900    0.027700    0.010400
C     -0.611200   -1.000100    1.009400
N     -1.754400   -1.052900    0.027000
C     -0.647300   -0.977200   -0.991600
C      0.205100   -2.228300   -0.689400
C      0.228500   -2.241100    0.648100
H     -0.175700    2.069600    0.888800
H     -0.222700    1.999200   -0.938900
H      1.734000    0.643100   -0.857900
H     -0.832500   -0.772400    2.051100
H     -2.180800   -1.981500    0.023300
H     -0.905700   -0.726000   -2.020700
H      0.691700   -2.874300   -1.406000
H      0.744700   -2.897900    1.333200
