17
gdb_19790
C      0.085100    1.555100    0.021200
C      0.018600    0.024700   -0.005000
C      0.672200   -0.613200   -1.240800
N      2.107100   -0.321400   -1.411600
C      1.692700   -1.607400   -0.811600
C      1.717900   -1.609900    0.705800
O      2.117200   -0.372700    1.298000
C      0.716800   -0.641900    1.185300
H      1.128600    1.876300   -0.000600
H     -0.428900    1.985500   -0.844300
H     -0.385600    1.956300    0.924600
H     -1.030600   -0.300400    0.015600
H      0.065300   -0.760100   -2.129700
H      2.362600   -0.480700   -2.383900
H      1.873000   -2.534300   -1.344900
H      2.000300   -2.509300    1.246400
H      0.189700   -0.739000    2.133200
