18
gdb_13182
C     -0.039600    1.589500   -0.026000
C     -0.000500    0.057300    0.026300
C     -1.409000   -0.522700    0.016800
O     -1.703600   -1.597600    0.476200
C      0.797600   -0.511700   -1.156200
C      0.892600   -2.040900   -1.348400
C      0.257500   -1.762400   -2.725200
O      0.090700   -0.358700   -2.412800
H      0.969000    2.006100    0.049100
H     -0.474300    1.928200   -0.971900
H     -0.636400    2.004300    0.792400
H      0.487300   -0.292900    0.944700
H     -2.177400    0.120800   -0.466400
H      1.771600   -0.002300   -1.195800
H      1.901800   -2.454400   -1.355200
H      0.262400   -2.611800   -0.666500
H      0.922700   -1.906600   -3.585400
H     -0.702400   -2.249200   -2.929100
