19
gdb_2574
C      0.158200    1.244100    0.757500
C      0.015300   -0.097400    0.026900
C     -1.379200   -0.699300    0.121800
C     -2.487100    0.074900   -0.580700
C     -3.888800   -0.530000   -0.471700
C     -1.500300   -2.142600    0.382700
O     -1.705600   -1.193000    1.433800
H      1.198400    1.582600    0.741100
H     -0.449500    2.030400    0.299700
H     -0.149300    1.142500    1.802600
H      0.281200    0.019100   -1.031700
H      0.726300   -0.812900    0.453500
H     -2.504500    1.087900   -0.160500
H     -2.204700    0.191900   -1.635200
H     -4.637600    0.170800   -0.851300
H     -3.982100   -1.453600   -1.051400
H     -4.127100   -0.754700    0.571400
H     -2.387500   -2.692000    0.075300
H     -0.597200   -2.746400    0.469800
