15
gdb_21070
C      0.079400    1.410500    0.030500
N     -0.033800   -0.032700    0.005900
N     -0.177900   -0.711100   -1.126100
C     -0.171000   -1.985800   -0.730600
C     -0.010300   -2.023200    0.662800
C      0.029900   -3.201900    1.581400
O      0.471300   -4.322000    0.828700
N      0.082200   -0.767500    1.107600
H      1.127700    1.715900    0.104700
H     -0.347800    1.794100   -0.895100
H     -0.468400    1.796100    0.891400
H     -0.272700   -2.795800   -1.432800
H      0.698100   -2.979700    2.426500
H     -0.973300   -3.380800    2.001500
H      0.368800   -5.106000    1.375500
