11
gdb_4237
F     -0.232900    0.073700   -0.130200
C     -0.073000    1.401600    0.025100
F      1.240400    1.631400    0.167400
F     -0.460300    1.995400   -1.112200
C     -0.851500    1.916900    1.204600
C     -2.156000    1.293600    1.530400
N     -0.988800    1.085300    2.401400
H     -0.680800    2.974400    1.384400
H     -2.943700    1.908400    1.953800
H     -2.492300    0.471900    0.906200
H     -0.592800    0.164500    2.225200
