15
gdb_5581
C      0.186900    1.471700    0.051400
N     -0.237100    0.098300   -0.187900
C      0.456300   -0.654900   -1.117000
C      0.661400   -2.002900   -1.130300
N      0.312100   -3.003100   -0.232600
O      1.334300   -2.292200   -2.324100
C      1.494700   -1.098300   -2.908200
N      1.003000   -0.088900   -2.260900
H      1.185700    1.554000    0.508100
H      0.206700    2.009200   -0.898000
H     -0.539100    1.955200    0.710000
H     -0.413500   -0.432700    0.654300
H     -0.390600   -3.644700   -0.587300
H      1.104600   -3.544600    0.097100
H      2.017700   -1.078300   -3.852500
