22
gdb_18519
C     -0.080300    1.582400   -0.030200
C      0.088900    0.060700   -0.020700
C      0.642800   -0.477300    1.304300
C      0.812600   -1.993900    1.317500
C      1.928600   -2.662700    0.434300
C      2.477100   -3.360500    1.685100
C      2.885500   -2.337200    2.704800
C      1.425200   -2.669200    2.555900
H      0.876300    2.087800    0.143800
H     -0.474000    1.936700   -0.988300
H     -0.771600    1.908600    0.755000
H     -0.877900   -0.417100   -0.228600
H      0.755200   -0.238000   -0.840700
H      1.604600    0.008100    1.517200
H     -0.030000   -0.187200    2.123900
H     -0.150900   -2.461400    1.084800
H      1.520600   -3.347200   -0.312500
H      2.626000   -1.980600   -0.066000
H      2.828400   -4.384200    1.729100
H      3.352500   -2.732400    3.601500
H      3.281100   -1.374000    2.391000
H      0.855800   -3.073600    3.385100
