20
gdb_8485
C     -0.109900    1.566400    0.038700
C      0.064800    0.053100   -0.002300
C      1.153900   -0.562900   -0.952900
C      1.767200   -1.264700    0.262400
O      2.230100   -2.571200    0.262500
C      2.183900   -0.258000    1.298500
C      0.723300   -0.665300    1.194600
C     -0.025000   -1.276100    2.343900
H      0.834700    2.080500    0.245000
H     -0.488100    1.942900   -0.918100
H     -0.823800    1.860800    0.816100
H     -0.903400   -0.415100   -0.211900
H      0.729600   -1.266500   -1.672600
H      1.800800    0.144700   -1.484800
H      3.174500   -2.559200    0.072200
H      2.695200   -0.689200    2.154300
H      2.530100    0.736000    1.023200
H     -0.384800   -0.512000    3.043700
H     -0.896400   -1.840700    1.992100
H      0.613100   -1.966500    2.904800
