12
gdb_19751
O      0.014600    0.010800    0.004100
C     -0.038600    1.205800    0.010300
C     -1.190100    2.169700    0.029800
C     -0.583400    3.369200    0.773300
O      0.756300    3.053100    1.140000
C      1.098100    2.272400    0.001500
O      0.728000    3.064500   -1.120100
C     -0.602100    3.376700   -0.716600
H     -2.232100    1.892300    0.041600
H     -1.110100    4.024700    1.449500
H      2.141100    1.976600   -0.013000
H     -1.145600    4.038800   -1.372800
