17
gdb_14611
O     -0.145900   -0.094300   -0.177500
C     -0.017700    1.098700   -0.091600
C      1.302800    1.835800   -0.133800
C      1.330700    2.894000   -1.249800
C      2.615200    3.727800   -1.235200
C      2.637000    4.771900   -2.369500
C      3.853400    5.581400   -2.362400
N      4.821600    6.211700   -2.339500
H     -0.907000    1.763600    0.023600
H      1.433800    2.334700    0.837700
H      2.107800    1.104600   -0.251600
H      1.225000    2.396700   -2.222500
H      0.461600    3.557800   -1.146400
H      2.717400    4.241500   -0.272700
H      3.488500    3.073900   -1.333900
H      2.555100    4.275900   -3.343900
H      1.773500    5.442500   -2.285800
