18
gdb_16887
C      0.003700    1.513100   -0.052700
C     -0.010200    0.014400    0.033400
C     -1.116900   -0.726900   -0.072500
C     -1.078300   -2.205800   -0.015300
C     -0.171600   -2.949700   -1.008200
C      0.241300   -2.785900    0.424600
O      1.259300   -1.935100    0.853600
C      1.328600   -0.658500    0.231900
H      0.663600    1.864800   -0.857300
H     -0.997000    1.910100   -0.243500
H      0.379800    1.962600    0.875700
H     -2.083500   -0.246800   -0.204600
H     -1.991600   -2.704700    0.291300
H     -0.471600   -3.939300   -1.336600
H      0.304500   -2.346300   -1.772600
H      0.234300   -3.666600    1.057300
H      1.864700   -0.731900   -0.731300
H      1.961900   -0.053200    0.891000
