13
gdb_20772
C      0.069600    1.495800    0.039300
C     -0.011900    0.001900    0.010800
N     -0.130300   -0.544800   -1.147600
O     -0.206800   -1.958500   -1.168200
C     -0.152900   -2.627000   -0.008800
N     -0.037000   -2.155800    1.169400
C      0.045300   -0.760300    1.277300
N      0.163900   -0.130000    2.380400
H      1.003000    1.804300    0.518700
H      0.012800    1.898600   -0.972600
H     -0.741700    1.896900    0.653500
H     -0.223800   -3.697200   -0.193600
H      0.187400   -0.805000    3.149000
