15
gdb_5394
C      0.005100    1.451600   -0.002800
N     -0.065200    0.008100    0.047800
C     -1.226400   -0.692700    0.030300
N     -2.375900    0.005600    0.061700
C     -3.492200   -0.720700    0.063600
C     -3.497200   -2.109400    0.030500
C     -2.243800   -2.718400   -0.008700
N     -1.105100   -2.037800   -0.009900
H      1.046900    1.753400    0.124100
H     -0.365200    1.852900   -0.954600
H     -0.592100    1.896400    0.797900
H      0.770000   -0.542500   -0.053600
H     -4.424700   -0.159600    0.090700
H     -4.415100   -2.682300    0.030100
H     -2.152300   -3.802800   -0.041500
