18
gdb_1615
C      0.027400    1.552500    0.022000
C      0.020300    0.017900    0.026100
C      0.770900   -0.519900    1.251800
C     -1.431200   -0.541500   -0.036100
C     -2.242800   -0.058300   -1.255900
C     -1.416000   -2.009800   -0.021300
N     -1.404700   -3.165900   -0.028500
H      1.052800    1.922900    0.114100
H     -0.391800    1.971600   -0.896100
H     -0.543800    1.950800    0.869400
H      0.537200   -0.333600   -0.876900
H      0.292400   -0.186000    2.180500
H      0.800300   -1.612600    1.262100
H      1.801600   -0.153000    1.260900
H     -1.952200   -0.222500    0.877800
H     -1.719500   -0.294200   -2.187400
H     -3.221000   -0.544300   -1.285300
H     -2.401000    1.020700   -1.209200
