18
gdb_16344
C     -0.353400    1.313200   -0.049300
O      0.229800    0.029200    0.119500
C      0.731800   -0.511200   -1.039200
C     -0.139900   -1.061800   -2.153200
C      0.848900   -1.950500   -1.444400
O      2.161000   -1.769200   -1.981500
C      2.192000   -0.386300   -1.504300
C      2.619400    0.608700   -2.561900
H      0.387800    2.059300   -0.367100
H     -1.165400    1.289200   -0.788400
H     -0.757200    1.607300    0.921800
H     -1.171800   -1.209500   -1.847900
H      0.008700   -0.805600   -3.198300
H      0.617900   -2.882100   -0.942700
H      2.848100   -0.330500   -0.625600
H      1.930200    0.615000   -3.410600
H      2.662900    1.617500   -2.137300
H      3.617500    0.357300   -2.935000
