18
gdb_14610
O     -0.679900    0.818000    0.781000
C      0.018000    1.017400   -0.179000
C      1.312000    1.798400   -0.168200
C      1.287300    2.962800   -1.173800
C      2.627200    3.699600   -1.256800
C      2.591500    4.874000   -2.255800
C      3.863100    5.580900   -2.345900
C      4.923000    6.145100   -2.400000
H     -0.266900    0.623600   -1.184300
H      1.501300    2.149200    0.850400
H      2.119000    1.103700   -0.445000
H      1.016400    2.580800   -2.167600
H      0.495700    3.668100   -0.889500
H      2.906200    4.080900   -0.268000
H      3.418800    3.001900   -1.554000
H      2.309800    4.499900   -3.249000
H      1.801600    5.578200   -1.962900
H      5.854000    6.652400   -2.456500
