15
gdb_15762
C     -0.110500    1.522900   -0.311200
C     -0.020100    0.089900   -0.094800
C      0.033600   -1.102300    0.087200
C      0.124300   -2.526400    0.299700
O     -0.851600   -3.223500    0.518800
C      1.500500   -3.113900    0.242400
C      1.876700   -4.010000    1.385900
N      1.595100   -4.569500    0.072000
H      0.875700    1.968100   -0.477100
H     -0.734700    1.742500   -1.184200
H     -0.566900    2.016500    0.553700
H      2.266000   -2.520900   -0.247000
H      2.916100   -4.044400    1.699100
H      1.139300   -4.131700    2.174300
H      0.637100   -4.923500    0.070200
