12
gdb_4659
O      0.113900    1.302600    0.132200
C      0.075000   -0.033200    0.017400
N      0.104200   -0.728200   -1.082500
C      0.039900   -2.058700   -0.658400
C     -0.027100   -2.116200    0.711400
N     -0.003700   -0.799900    1.137800
C      0.046700   -3.147000   -1.561500
C      0.052300   -4.076500   -2.326900
H      0.168100    1.651700   -0.766500
H     -0.087100   -2.943900    1.396300
H     -0.037700   -0.463500    2.085000
H      0.057400   -4.893600   -3.004400
