18
gdb_9364
C      0.081500    1.337400    0.007800
O      0.011100   -0.068300    0.001300
C     -1.316600   -0.547000    0.011500
C     -1.260500   -2.067400    0.003100
C     -2.639300   -2.708900    0.012900
O     -3.658300   -2.063600    0.026500
C     -2.643300   -4.236300    0.004200
O     -3.964200   -4.707300    0.014700
H      1.139000    1.612700   -0.000800
H     -0.407500    1.775700   -0.876600
H     -0.390600    1.766600    0.905800
H     -1.857700   -0.190600    0.901600
H     -1.874400   -0.181500   -0.864600
H     -0.704800   -2.414900   -0.877600
H     -0.688400   -2.423900    0.869600
H     -2.079100   -4.564700   -0.886400
H     -2.061500   -4.574700    0.879700
H     -3.937700   -5.668400    0.009000
