16
gdb_2418
C     -0.037600    1.446300    0.011400
C      0.080600   -0.047900   -0.031600
C      0.566800   -0.946200   -1.178500
C      0.054700   -1.894900   -0.095700
C      0.585200   -1.029900    1.082900
C     -0.810500   -1.041800    1.691700
N     -1.159500   -0.976600    0.207800
H      0.947200    1.913200   -0.098100
H     -0.677300    1.802500   -0.802600
H     -0.470300    1.787200    0.957700
H     -0.018300   -0.905500   -2.102100
H      1.641800   -0.954000   -1.378600
H     -0.074200   -2.978400   -0.115000
H      1.575200   -1.062200    1.552300
H     -1.152500   -1.963200    2.174900
H     -1.142900   -0.169400    2.263700
