12
gdb_4714
N      0.157500    1.341100    0.158600
C     -0.055200   -0.007300    0.047300
C     -1.175700   -0.805800    0.001400
N     -0.779200   -2.115900   -0.028100
C      0.520300   -2.092900   -0.002300
O      1.028600   -0.801200    0.045800
C      1.505300   -3.168300   -0.019600
O      1.239500   -4.346700   -0.061900
H      1.048200    1.662700   -0.192600
H     -0.615300    1.918900   -0.135500
H     -2.212500   -0.511000   -0.010900
H      2.550500   -2.792500    0.011200
