18
gdb_16911
C      0.044300    1.500600    0.019800
C      0.040000   -0.011600   -0.014400
O      0.665700   -0.439100   -1.201300
C      0.511100   -1.839300   -1.393800
C      0.906800   -2.620000   -0.157300
C      2.233300   -2.368200    0.524100
C      0.958700   -1.856100    1.143000
O      0.737100   -0.471400    1.126100
H      1.073600    1.862400   -0.037500
H     -0.520900    1.894700   -0.827700
H     -0.405500    1.853900    0.950400
H     -0.990400   -0.414800    0.005300
H     -0.538400   -2.064200   -1.646700
H      1.130300   -2.099900   -2.257900
H      0.512900   -3.631100   -0.118200
H      2.742800   -3.205900    0.987300
H      2.878900   -1.611100    0.092700
H      0.588700   -2.322500    2.052200
