15
gdb_15734
O     -0.071100   -0.113300   -0.076300
C     -0.065200    1.093100   -0.026800
C      1.245000    1.902700    0.025600
C      2.448200    1.081500    0.009800
N      3.415700    0.452000   -0.001700
C     -1.303600    1.915300   -0.011300
C     -2.498700    1.383300   -0.795100
C     -2.520800    1.322100    0.690200
H      1.261000    2.599300   -0.822100
H      1.235300    2.527900    0.927400
H     -1.173700    2.990800    0.034900
H     -3.114500    2.116300   -1.302700
H     -2.327500    0.457800   -1.332300
H     -2.364500    0.355400    1.154300
H     -3.152400    2.011600    1.237800
