13
gdb_13748
N     -0.106400    1.169500   -0.123700
C     -0.086000   -0.200000   -0.033300
O      0.824200   -0.901500   -0.403300
N     -1.253000   -0.715300    0.586000
C     -2.592200   -0.554500    0.057100
C     -1.919400   -1.905000    0.098100
C     -1.549500   -2.526800   -1.154500
N     -1.321500   -3.066300   -2.150700
H      0.783600    1.595300   -0.329100
H     -0.725300    1.690100    0.476600
H     -3.373100   -0.329200    0.778300
H     -2.704800   -0.097300   -0.922500
H     -2.204000   -2.615300    0.869400
