17
gdb_18887
C      0.024500    1.512800   -0.006600
C      1.527800    1.876300    0.001200
O      2.043700    1.690100    1.343900
C      2.159200    0.273200    1.056300
C      0.772000   -0.384700    1.242300
N      0.005100    0.020600    0.027500
C      1.002700   -0.283200   -1.031100
C      2.169100    0.540100   -0.478400
H     -0.495700    1.935200    0.855700
H     -0.472700    1.846700   -0.923900
H      1.801000    2.843700   -0.425900
H      2.998300   -0.196000    1.574700
H      0.837000   -1.478000    1.264400
H      0.281400   -0.037600    2.154100
H      1.201900   -1.357800   -1.078400
H      0.645400    0.054900   -2.008200
H      3.125100    0.576900   -0.994600
