18
gdb_16948
C     -0.017600    1.503200    0.047400
C     -0.081600    0.014500   -0.019900
C     -0.080200   -0.802500   -1.082700
C      0.023700   -2.230100   -0.571400
C      1.439200   -2.337600    0.074000
O      1.370400   -1.453900    1.201100
C      0.017100   -0.909500    1.193600
C     -0.808500   -2.117100    0.734300
H      0.911100    1.830100    0.532200
H     -0.056400    1.953000   -0.948900
H     -0.842900    1.916700    0.640700
H     -0.025700   -0.515200   -2.126100
H     -0.221300   -3.031100   -1.268000
H      1.652300   -3.357000    0.421400
H      2.237000   -2.020700   -0.607400
H     -0.171300   -0.477700    2.176200
H     -1.858600   -1.888100    0.548100
H     -0.712900   -2.975700    1.405500
