16
gdb_12892
O      0.135100    1.368100   -0.104100
C     -0.021000   -0.015200   -0.019800
C     -0.459300   -0.739300    1.239900
C     -1.165200    0.106200    2.278800
O     -2.092900    0.919000    1.539800
C     -2.541900    0.159500    0.415700
C     -1.357600   -0.709800    0.013200
O     -1.613800   -1.870900   -0.712100
H     -0.565500    1.765900    0.432000
H      0.747900   -0.520300   -0.596400
H      0.047400   -1.649500    1.538200
H     -1.693600   -0.527900    3.005800
H     -0.511700    0.793500    2.825000
H     -3.392300   -0.490000    0.671700
H     -2.861300    0.876900   -0.347800
H     -1.616900   -1.645400   -1.648900
