21
gdb_15838
C      1.026800    1.414300   -0.180600
O      1.100000    0.015900   -0.051100
C      0.034200   -0.652400   -0.689900
C      0.193100   -2.155700   -0.458500
C      0.076000   -2.513900    1.021800
N     -0.850400   -2.840100   -1.223000
C     -0.545900   -3.149500   -2.616800
C     -0.582000   -4.225400   -1.589000
H      1.060400    1.730000   -1.235800
H      0.105000    1.819100    0.266600
H      1.888200    1.838500    0.341500
H     -0.937900   -0.317900   -0.290900
H      0.036100   -0.436200   -1.771500
H      1.200700   -2.439200   -0.816500
H      0.256600   -3.581100    1.182300
H      0.804300   -1.944100    1.602700
H     -0.928900   -2.280300    1.388100
H     -1.364000   -3.026900   -3.320900
H      0.433200   -2.866500   -3.001200
H      0.373600   -4.655800   -1.292300
H     -1.426000   -4.906400   -1.526800
