18
gdb_14066
C     -0.033500    1.481800   -0.169600
C      0.085900   -0.019800   -0.049200
C      1.415000   -0.698800   -0.130600
C      0.694200   -0.636200    1.200800
C      1.106000    0.020700    2.531200
C      0.499900   -1.201300    3.298700
C      0.126000   -1.815400    1.932300
O     -0.407500   -2.832500    1.583800
H      0.837400    1.986800    0.260300
H     -0.105900    1.781300   -1.220800
H     -0.925400    1.855200    0.345000
H     -0.754500   -0.585100   -0.445100
H      1.479000   -1.673900   -0.602300
H      2.300400   -0.078100   -0.231600
H      2.182900    0.143400    2.666900
H      0.614900    0.972900    2.744900
H      1.209900   -1.802200    3.873500
H     -0.361800   -0.981700    3.935100
