12
gdb_1461
O      0.150500    1.407000    0.009300
C      0.007200    0.016100    0.001700
C     -1.489800   -0.317700    0.014300
O     -2.363100    0.501100    0.026800
N     -1.704000   -1.708900    0.009300
C     -2.920200   -2.388200    0.017100
O     -4.013800   -1.898400    0.029900
H      1.089800    1.612700   -0.002600
H      0.452200   -0.454200   -0.893000
H      0.469900   -0.465800    0.881100
H     -0.883100   -2.298100   -0.001100
H     -2.740800   -3.483600    0.010500
