17
gdb_16301
C     -0.071200    1.606800   -0.147000
C      0.027100    0.091100   -0.052300
C      1.160200   -0.642800   -0.863500
C      1.688600   -1.230600    0.446900
N      2.039500   -0.123300    1.321000
C      0.610600   -0.506300    1.239500
C     -0.058300   -1.070900    2.414800
O      0.532900   -1.464000    3.398900
H      0.882500    2.067500    0.123400
H     -0.328800    1.918100   -1.164800
H     -0.842700    1.995800    0.526500
H     -0.939600   -0.376400   -0.267800
H      0.771200   -1.392800   -1.554300
H      1.870700    0.004200   -1.384200
H      2.061500   -2.231400    0.630600
H      2.370600   -0.514000    2.206000
H     -1.165100   -1.141200    2.338900
