17
gdb_17195
C      0.051100    1.468100   -0.321000
N      0.034000    0.033800   -0.032500
C     -1.045400   -0.505200    0.892400
C     -0.111100   -1.733000    1.089500
C      0.787500   -0.467400    1.189100
C     -0.311800    0.130900    2.091800
C     -0.479600    1.267700    2.983200
O     -0.529200   -0.095300    3.463500
H      1.014900    1.714800   -0.778400
H     -0.727800    1.678600   -1.061200
H     -0.102000    2.137100    0.536900
H     -2.102700   -0.485100    0.626400
H     -0.246500   -2.315800    2.000300
H      0.046400   -2.333200    0.193400
H      1.873000   -0.403000    1.270000
H      0.386900    1.841300    3.309900
H     -1.427200    1.803800    3.016300
