15
gdb_5124
C     -0.103200    1.444200    0.012700
N      0.079000    0.009200   -0.012600
C      0.195900   -0.787100   -1.138300
C      0.287600   -2.099600   -0.740900
C      0.203800   -2.107500    0.681800
O      0.315900   -3.153300    1.578000
C      0.070900   -0.801900    1.088100
O     -0.035400   -0.260900    2.329200
H      0.289600    1.867900   -0.913800
H     -1.159800    1.721200    0.107700
H      0.442100    1.873000    0.856400
H      0.207600   -0.339400   -2.118300
H      0.415200   -2.955500   -1.385500
H     -0.370800   -3.800000    1.385200
H      0.044600   -0.996000    2.949100
