20
gdb_8241
C     -0.467600    1.378500   -0.069000
C      0.046000   -0.061500    0.010100
C      0.952900   -0.414300   -1.163200
O      0.819500   -0.273500    1.195500
C      0.079700   -0.487000    2.362600
C     -0.477500   -1.911200    2.621800
O      0.258300   -2.003100    3.859200
C      0.959000   -0.770400    3.590300
H      0.374600    2.077500   -0.080000
H     -1.053100    1.526200   -0.982000
H     -1.110200    1.630200    0.779700
H     -0.813300   -0.751500    0.016900
H      1.831300    0.238900   -1.170000
H      1.297400   -1.448500   -1.083400
H      0.423500   -0.292200   -2.112700
H     -0.664600    0.302400    2.526100
H     -1.557100   -2.015600    2.779700
H     -0.138600   -2.646500    1.879600
H      2.009500   -0.935600    3.319600
H      0.897900   -0.068200    4.428800
