16
gdb_9126
C      0.093000    1.495300    0.008500
C     -0.077800   -0.021300    0.002500
C     -1.534500   -0.460400    0.014000
O     -2.461800    0.321100    0.027400
C     -1.747100   -1.896200    0.008100
C     -1.915900   -3.091300    0.003200
C     -2.096500   -4.535500   -0.002400
O     -3.478800   -4.850900    0.009200
H      1.153400    1.761700    0.000100
H     -0.385300    1.945500   -0.864900
H     -0.369100    1.936600    0.895100
H      0.398200   -0.478800   -0.875600
H      0.414500   -0.487500    0.866800
H     -1.592700   -4.945200   -0.893700
H     -1.575700   -4.954300    0.874700
H     -3.557000   -5.810500    0.004200
