16
gdb_15845
C     -0.292700    1.508700   -0.050100
C      0.018600    0.017900   -0.032100
C      1.238600   -0.388800   -0.916700
C      2.075000   -0.515000    0.362400
O      3.242100   -0.537000    0.602700
C      0.795100   -0.479100    1.253600
C      0.792000    0.294900    2.470800
C      0.801600    0.960800    3.472200
H      0.608300    2.106200    0.126800
H     -0.706600    1.801400   -1.020400
H     -1.016700    1.769900    0.726600
H     -0.885600   -0.562700   -0.224600
H      1.123200   -1.355800   -1.417100
H      1.597300    0.341400   -1.646700
H      0.521700   -1.522200    1.462300
H      0.815200    1.542000    4.360800
