19
gdb_18267
C      0.069000    1.318700    0.124800
O     -0.156200   -0.054000   -0.100800
C      0.560900   -0.576900   -1.200500
C      2.075700   -0.787000   -0.944900
C      2.411300   -2.056000   -1.756200
N      1.173900   -2.852300   -1.908000
C      0.463500   -3.075800   -0.641900
C      0.052900   -1.968000   -1.540900
H      1.110900    1.530700    0.407800
H     -0.174900    1.921800   -0.764400
H     -0.584400    1.623300    0.946100
H      0.413500    0.081300   -2.073400
H      2.684100    0.068000   -1.248100
H      2.229500   -0.933900    0.128400
H      2.747400   -1.792700   -2.765100
H      3.197200   -2.664200   -1.297100
H     -0.126300   -3.986900   -0.612700
H      0.953100   -2.825900    0.295400
H     -0.853100   -2.049400   -2.133400
