15
gdb_14486
C     -0.004400    1.498000    0.021900
C     -0.065100    0.012000   -0.070500
C      0.510800   -1.004700   -1.096100
C      0.819100   -1.916000    0.080400
N      0.267600   -0.906200    1.081400
C     -1.074400   -0.983600    0.390000
C     -0.510800   -2.031300   -0.623700
O     -1.080100   -3.014100   -1.381500
H      1.031400    1.853100   -0.016800
H     -0.558300    1.967800   -0.798300
H     -0.442000    1.830600    0.968400
H      0.980400   -0.913200   -2.065100
H      1.632100   -2.605000    0.273400
H     -2.008400   -0.871100    0.930400
H     -1.263400   -3.772900   -0.814700
