17
gdb_1269
C      0.032000    1.537200   -0.217000
C     -0.030700    0.063400    0.223800
C     -1.384900   -0.480900    0.215900
C     -2.516200   -0.896700    0.193100
C     -3.877900   -1.440900    0.214000
C     -3.898600   -2.928200   -0.168200
O     -4.519300   -1.217600    1.469800
H      1.064300    1.898900   -0.193300
H     -0.351600    1.654600   -1.234100
H     -0.570200    2.165800    0.444400
H      0.608500   -0.543800   -0.430100
H      0.392800   -0.036300    1.231600
H     -4.493800   -0.887200   -0.505300
H     -3.290700   -3.510700    0.531700
H     -4.926600   -3.298800   -0.134800
H     -3.495600   -3.078000   -1.174100
H     -3.921100   -1.535900    2.155000
