17
gdb_9098
C     -0.142100    1.428000   -0.031100
N      0.030300   -0.015400   -0.038600
C      0.035000   -0.728600    1.221600
C     -1.347300   -0.781100    1.911100
C     -1.311400   -1.676000    3.130600
O     -1.506800   -1.307500    4.259000
C      0.210500   -0.670400   -1.224400
O      0.219100   -0.155200   -2.321000
H      0.597800    1.898100    0.627200
H     -0.001900    1.782100   -1.052400
H     -1.142900    1.714100    0.311200
H      0.385200   -1.748900    1.028800
H      0.760500   -0.263200    1.901800
H     -1.681600    0.212600    2.218400
H     -2.073200   -1.196200    1.199400
H     -1.070300   -2.742800    2.910400
H      0.355900   -1.758200   -1.070400
