16
gdb_9668
C     -0.265500    1.057000   -0.325700
O      0.438300   -0.119300    0.061600
C      0.984800   -0.798200   -1.020000
C      1.455900   -2.186500   -0.779100
C      0.141100   -1.986400   -1.523700
O     -1.065000   -2.230000   -0.875300
C      0.104600   -2.214800   -2.983300
O      1.079500   -2.152400   -3.697700
H      0.406900    1.771500   -0.818300
H     -1.095000    0.823800   -1.006000
H     -0.658400    1.505500    0.588600
H      1.490200   -0.185200   -1.764200
H      2.298600   -2.535300   -1.365200
H      1.364400   -2.575900    0.228800
H     -1.101500   -1.621200   -0.124500
H     -0.911500   -2.429000   -3.378300
