18
gdb_14400
C      0.010900    1.558200   -0.047900
C     -0.010400    0.052400   -0.064600
C      0.449600   -0.818000   -1.247600
C     -0.254600   -1.933300   -0.448700
O      0.607500   -2.073900    0.693200
C      0.375500   -0.770900    1.248200
C     -1.122300   -0.842500    1.623200
C     -1.291300   -0.864000    0.098300
H      1.041000    1.933800   -0.065600
H     -0.507800    1.972400   -0.919300
H     -0.469800    1.963900    0.849100
H     -0.090200   -0.542400   -2.158900
H      1.515500   -0.952500   -1.451500
H     -0.527000   -2.904600   -0.857700
H      1.170300   -0.487600    1.937500
H     -1.435000   -1.701600    2.221500
H     -1.505100    0.087500    2.051100
H     -2.226500   -0.708500   -0.437300
