12
gdb_7721
N     -0.067000    1.286400    0.235900
C      0.031500    0.062700   -0.048400
N     -1.099400   -0.710900   -0.310500
C     -1.155300   -2.096000   -0.251600
O     -2.165000   -2.727800   -0.145900
O      0.071000   -2.683900   -0.325300
C      1.099700   -1.857300   -0.829400
O      1.194200   -0.643600   -0.109700
H      0.853200    1.704500    0.353500
H     -1.983600   -0.232100   -0.217000
H      2.038300   -2.388200   -0.682200
H      0.922500   -1.649100   -1.892400
