20
gdb_6282
C      0.106000    1.604700    0.016300
C      0.085200    0.065700    0.041900
C      0.668400   -0.549800   -1.256600
N     -0.105300   -0.179500   -2.433400
C      0.687600   -0.243100   -3.653600
C     -1.333800   -0.949900   -2.566400
C      0.820100   -0.453700    1.198600
N      1.414300   -0.862600    2.101900
H      1.135000    1.975700   -0.007500
H     -0.408100    1.947500   -0.883400
H     -0.386900    2.020800    0.898000
H     -0.952500   -0.271000    0.154000
H      1.687600   -0.169400   -1.379000
H      0.749500   -1.645400   -1.135500
H      1.034900   -1.265100   -3.896300
H      0.089700    0.115500   -4.497100
H      1.566300    0.402000   -3.562200
H     -1.962000   -0.836600   -1.678500
H     -1.906200   -0.581900   -3.422900
H     -1.148400   -2.030600   -2.715700
