17
gdb_20539
C     -0.068500    1.571700    0.460400
C     -0.066000    0.098700    0.034400
C      0.983100   -0.713500    0.816400
C     -1.425800   -0.527900    0.162700
C     -2.584100   -0.057600    0.739100
N     -3.474500   -1.063700    0.561500
N     -2.920500   -2.103300   -0.085700
N     -1.683800   -1.780500   -0.326100
H      0.921100    2.014500    0.313500
H     -0.789300    2.158200   -0.118300
H     -0.319900    1.675100    1.522500
H      0.207400    0.048900   -1.027900
H      0.778000   -0.678500    1.892200
H      0.971100   -1.760100    0.503200
H      1.987000   -0.309900    0.648200
H     -2.841100    0.863400    1.233100
H     -4.442000   -1.112500    0.837600
