18
gdb_17554
C      0.039700    1.536400    0.054000
C     -0.037200    0.042300   -0.045400
C     -0.905100   -0.814500    0.794200
N      0.556100   -0.900200    0.994700
C      1.060800   -1.775500   -0.127800
C      0.524800   -0.799500   -1.176900
C      0.029200   -0.960800   -2.560400
N      1.337000   -0.321800   -2.287100
H      1.034200    1.904200   -0.221700
H     -0.696800    2.015800   -0.602200
H     -0.164100    1.860200    1.078300
H     -1.421600   -0.347500    1.628200
H     -1.428700   -1.661000    0.353200
H      2.151800   -1.817800   -0.116000
H      0.649900   -2.790700   -0.112300
H      0.091100   -1.925500   -3.057200
H     -0.802300   -0.337800   -2.882300
H      1.258300    0.689000   -2.379500
