12
gdb_1076
O     -0.017500    1.420800    0.007700
C      0.000100    0.003600    0.002200
C     -1.412300   -0.474600    0.012500
C     -2.560500    0.242200    0.024200
O     -3.608000   -0.641900    0.030400
C     -3.018300   -1.855700    0.021600
N     -1.726200   -1.831200    0.010900
H      0.891600    1.732400    0.001500
H      0.511600   -0.396900   -0.887900
H      0.526800   -0.403700    0.880100
H     -2.800300    1.289500    0.029500
H     -3.671200   -2.714300    0.024400
