19
gdb_17139
O      0.039800    1.465900    0.026400
C      0.082000    0.058700    0.024600
C      0.172500   -0.600500    1.426100
N     -1.298400   -0.770100    1.391400
C     -1.297600   -0.642600   -0.084100
C     -1.884800   -1.919900    1.994400
C     -2.292200   -1.834300    3.442100
C     -3.344900   -1.864500    2.360700
H     -0.628200    1.731100    0.669200
H      0.840300   -0.225000   -0.705700
H      0.723000   -1.555100    1.405900
H      0.556300    0.019200    2.243700
H     -2.121400   -0.057600   -0.507000
H     -1.235800   -1.611200   -0.606300
H     -1.504400   -2.889400    1.651200
H     -2.161100   -2.712200    4.064500
H     -2.120000   -0.888700    3.942700
H     -3.866800   -0.938800    2.148300
H     -3.938800   -2.763200    2.238300
