16
gdb_6697
C     -0.044700    1.472900    0.022000
N      0.031300    0.019400    0.028900
C      0.824700   -0.476000    1.146000
C     -1.303500   -0.568500   -0.008400
C     -1.284400   -2.007000   -0.253100
C     -1.291800   -3.198800   -0.448900
C     -1.297200   -4.546100   -0.670800
N     -1.302300   -5.692700   -0.857400
H      0.966700    1.887100   -0.013000
H     -0.582900    1.815400   -0.867500
H     -0.552100    1.888000    0.913800
H      0.398000   -0.207100    2.131100
H      0.904500   -1.564700    1.093500
H      1.832900   -0.057000    1.086400
H     -1.880000   -0.382700    0.922000
H     -1.868500   -0.090900   -0.819000
