17
gdb_2776
C      0.133300    1.683600   -0.104400
C      0.171300    0.165500    0.102400
C      0.581300   -0.592700   -1.158600
C      0.582200   -2.156400   -1.172900
C     -0.177300   -2.160800   -2.533800
C     -0.422900   -0.657300   -2.326800
O     -1.189300    0.131800   -2.802100
H      1.123600    2.069000   -0.371900
H     -0.557100    1.944700   -0.910600
H     -0.189000    2.196600    0.806800
H      0.868000   -0.089400    0.911200
H     -0.816500   -0.188400    0.424900
H      1.537900   -0.204800   -1.535200
H      1.561000   -2.637200   -1.163700
H     -0.021900   -2.570600   -0.361600
H      0.472600   -2.346400   -3.395400
H     -1.068400   -2.785600   -2.632300
