13
gdb_4708
C      0.150500    1.456800    0.064100
C     -0.056100   -0.008700   -0.030600
C     -1.138500   -0.813400   -0.250700
N     -0.749800   -2.131500   -0.236400
C      0.531200   -2.091700   -0.012600
O      1.020900   -0.821800    0.123400
C      1.510500   -3.179600    0.113500
O      1.242800   -4.351500    0.019800
H      0.855300    1.808900   -0.696800
H     -0.800100    1.974100   -0.080500
H      0.552700    1.739300    1.042900
H     -2.163900   -0.521200   -0.416700
H      2.540300   -2.812500    0.306800
