15
gdb_6875
C     -0.057300    1.580400   -0.050200
C      0.008700    0.074500    0.001200
O     -1.160800   -0.599100   -0.370700
C      1.297800   -0.647900   -0.260600
O      2.421600    0.117600   -0.525400
C      0.695900   -0.643400    1.159200
C      1.368200    0.086300    2.190200
N      1.940300    0.662500    3.015100
H      0.886700    2.030300    0.258400
H     -0.266100    1.908400   -1.075200
H     -0.859300    1.943100    0.598400
H     -1.340400   -0.390900   -1.295200
H      1.223600   -1.601600   -0.782400
H      3.163700   -0.221300   -0.011600
H      0.213800   -1.561400    1.476700
