14
gdb_20700
C     -0.039000    1.476600    0.023200
C      0.001200   -0.023300    0.002700
N      0.137300   -0.633500   -1.195300
C      0.180900   -1.945500   -1.174200
C      0.081700   -2.652300    0.043200
N      0.183500   -4.021900    0.113600
N     -0.072000   -1.989400    1.190100
N     -0.104200   -0.659600    1.166900
H      0.884600    1.890200   -0.394800
H     -0.863700    1.847100   -0.594000
H     -0.163400    1.832300    1.046300
H      0.293900   -2.469600   -2.122800
H     -0.106200   -4.548500   -0.695300
H     -0.115500   -4.411100    0.996500
