15
gdb_9052
C     -0.063300    1.544100    0.027900
C      0.021100    0.011500   -0.010900
O      0.694900   -0.469600   -1.162200
C     -0.148800   -0.598000   -2.300700
C      0.617000   -1.145700   -3.409400
C      1.223900   -1.594900   -4.342500
C      0.752000   -0.498000    1.162500
N      1.302300   -0.872600    2.105800
H      0.940200    1.972600   -0.017400
H     -0.645200    1.911600   -0.821100
H     -0.551000    1.876700    0.948200
H     -0.994800   -0.413400    0.035400
H     -0.998300   -1.261200   -2.068000
H     -0.570600    0.376200   -2.592400
H      1.767700   -1.995000   -5.162500
