17
gdb_6460
C     -0.036300    1.573100   -0.022200
C     -0.076500    0.049200   -0.053700
C     -1.490200   -0.494700    0.168200
O     -1.993500   -0.163300    1.452000
C      0.703100   -0.630400   -1.223500
C      1.686300   -1.128200   -0.139200
O      2.732100   -1.716500   -0.122400
N      0.899800   -0.596500    0.864400
H      0.989000    1.942000   -0.118000
H     -0.630900    1.990000   -0.841700
H     -0.459900    1.940600    0.916800
H     -2.178400   -0.047500   -0.557500
H     -1.489700   -1.582800    0.009700
H     -1.507800   -0.695100    2.091600
H      0.170500   -1.420200   -1.758200
H      1.155100    0.057000   -1.940600
H      1.179000   -0.330100    1.799200
