13
gdb_17426
O      0.081900    1.457800   -0.045600
C     -0.029000    0.101000   -0.073800
C      0.413200   -0.761300   -1.252900
N     -0.521000   -1.852500   -0.771800
C     -0.420900   -1.876600    0.724700
C     -1.310400   -0.892200   -0.007300
C      0.408600   -0.712400    1.150800
O      0.939600   -0.346600    2.165900
H      0.337200    1.708900    0.854800
H      0.042900   -0.413500   -2.219400
H      1.470800   -1.038300   -1.322800
H     -0.682400   -2.790500    1.238500
H     -2.386300   -0.788100    0.015600
