15
gdb_8328
O      0.112800   -0.062800    0.001600
C     -0.005300    1.130300    0.009400
C     -1.173300    2.147900    0.031700
C     -0.070000    3.241300    0.021100
C     -0.045600    4.387900   -1.011800
O     -0.153100    5.374100    0.033200
C     -0.015200    4.377300    1.064500
N      0.907800    2.163700    0.001300
H     -1.813200    2.119600   -0.852300
H     -1.787100    2.110500    0.933500
H      0.898300    4.471500   -1.568000
H     -0.883700    4.433900   -1.716900
H     -0.832400    4.415900    1.794300
H      0.944500    4.455400    1.593700
H      1.917800    2.169000   -0.013400
