15
gdb_15502
N      0.046700    1.335900    0.110400
C      0.058100    0.068800    0.133300
N      1.131600   -0.819900    0.282000
C      0.747800   -2.164400   -0.133700
C     -0.746100   -2.156200    0.212200
N     -1.095300   -0.744400    0.042300
C     -2.407800   -0.337700   -0.112300
O     -2.814500    0.787800   -0.216200
H      0.995300    1.703000    0.177700
H      2.029100   -0.468100   -0.015200
H      0.899700   -2.334400   -1.209800
H      1.295300   -2.930800    0.420600
H     -1.338200   -2.794100   -0.447100
H     -0.905900   -2.477100    1.249000
H     -3.073300   -1.226600   -0.142000
