14
gdb_4376
O      0.106800    1.350500   -0.073700
C      0.078100   -0.011900   -0.029200
C     -0.022400   -0.694700   -1.241100
C     -0.054000   -2.085100   -1.229300
C      0.012200   -2.805400   -0.041400
C      0.112600   -2.111000    1.164000
O      0.175500   -2.845100    2.311100
C      0.145800   -0.715400    1.174800
H      0.176900    1.696000    0.821900
H     -0.073600   -0.128500   -2.162800
H     -0.132100   -2.620900   -2.169700
H     -0.011900   -3.888000   -0.025900
H      0.242700   -2.250700    3.065100
H      0.224200   -0.177900    2.118100
