12
gdb_73
C     -0.002200    1.533400   -0.059600
C     -0.032400    0.012100    0.068400
C      0.696700   -0.482000    1.318300
N      0.981000   -1.820300    1.319800
O      1.003900    0.246100    2.241400
H      1.021100    1.895300   -0.191800
H     -0.597100    1.862100   -0.916500
H     -0.397300    1.999200    0.845500
H     -1.069400   -0.345500    0.130400
H      0.399500   -0.469100   -0.817800
H      0.632800   -2.439200    0.608700
H      1.357100   -2.222200    2.163000
