15
gdb_4994
C     -0.021900    1.523100    0.039200
C     -0.040500    0.024600    0.022300
C     -1.166000   -0.719300    0.135200
C     -1.113600   -2.156200    0.111500
C      0.085100   -2.743200   -0.026100
O      1.234400   -2.042700   -0.142100
C      1.248800   -0.647200   -0.126500
N      2.350400   -0.022200   -0.238700
H      0.608000    1.893100    0.854800
H      0.419500    1.915100   -0.883000
H     -1.031300    1.926100    0.153900
H     -2.127100   -0.226500    0.246000
H     -2.006900   -2.759400    0.200900
H      0.265900   -3.810400   -0.059000
H      3.128600   -0.675200   -0.331600
