15
gdb_19670
C      0.006800   -1.260900   -0.066300
C      0.021800   -0.060400    0.006100
C      0.016900    1.388800    0.091600
C     -0.169300    2.109300    1.423300
C      1.233500    2.211800    2.053900
C      2.176900    1.545800    1.069100
N      1.353800    2.128800   -0.067400
C      0.806600    3.147100    0.962900
H     -0.004200   -2.321000   -0.131000
H     -0.657400    1.801700   -0.665100
H     -1.069300    2.234800    2.011600
H      1.352500    2.419400    3.110100
H      3.164500    2.013100    1.054100
H      2.274400    0.456700    1.050900
H      0.772800    4.218700    0.832700
