18
gdb_7677
C     -0.019700    1.531600   -0.042000
C      0.056500    0.014200   -0.067300
C     -1.167200   -0.648400    0.549500
C      0.695300   -0.761000   -1.172100
C      1.900500   -0.031300   -1.782400
C      2.542100   -0.057000   -0.367700
O      3.642400    0.203300    0.031300
C      1.356700   -0.741500    0.241300
H      0.868900    2.014300   -0.452900
H     -0.887400    1.880000   -0.614300
H     -0.138800    1.886500    0.987400
H     -2.074000   -0.352800    0.010100
H     -1.096200   -1.739700    0.517300
H     -1.289700   -0.348100    1.595600
H      0.206200   -1.612000   -1.629800
H      2.488900   -0.664100   -2.453900
H      1.731100    0.934700   -2.264600
H      1.385000   -1.491500    1.023200
