11
gdb_16786
N     -0.075700    1.263600   -0.058400
C     -0.045600    0.013200    0.030800
O      1.106400   -0.750500    0.197100
C      0.849600   -2.102200    0.001600
O      1.717400   -2.909600   -0.088700
C     -0.647000   -2.273000   -0.080100
O     -1.271400   -1.764200    1.103900
C     -1.211000   -0.916000   -0.049000
H      0.859600    1.667900    0.014000
H     -1.085600   -3.143600   -0.552000
H     -2.147100   -0.608900   -0.497700
