17
gdb_14195
C      0.061600    1.491900   -0.077000
C      0.000600   -0.002500    0.033200
C     -1.314300   -0.788100   -0.154000
C     -0.716800   -2.101700    0.395100
N     -0.366500   -1.786400    1.811200
C      0.625600   -0.870900    1.242200
C      0.815400   -1.789000    0.032500
O      0.867100   -0.722500   -0.908000
H      1.084100    1.852000    0.069200
H     -0.279500    1.824500   -1.063200
H     -0.580800    1.954400    0.679500
H     -2.156700   -0.438100    0.450900
H     -1.597200   -0.813800   -1.208800
H     -1.212300   -3.050900    0.196800
H     -1.121900   -1.342100    2.333600
H      1.408700   -0.439100    1.865000
H      1.540400   -2.588900   -0.095900
