10
gdb_21757
O     -0.135200    1.267100    0.010200
N      1.171800    1.882300    0.000800
C      2.048000    0.905200   -0.012700
C      1.419200   -0.370300   -0.013300
C      0.095800   -0.028200    0.001200
O     -0.734000   -1.049400    0.003800
N      0.111200   -2.220800   -0.010600
C      1.351200   -1.790700   -0.020100
H      3.095200    1.173200   -0.021300
H      2.137300   -2.532600   -0.031600
