13
gdb_710
C     -0.022800    1.493900   -0.074800
C      1.322700    0.820900   -0.016400
C      0.058500   -0.002600    0.038600
N      0.426800   -0.801900   -1.202000
C      0.615700    0.097700   -2.359200
C      1.657900    0.057100   -1.312900
H     -0.310400    1.965300    0.860600
H     -0.386300    2.024500   -0.947400
H      2.051700    1.019100    0.757400
H     -0.393200   -0.557600    0.850500
H      0.817900   -0.462300   -3.268200
H     -0.023700    0.959400   -2.510800
H      2.629200   -0.398900   -1.477000
