21
gdb_1192
C     -0.188400    1.539100   -0.049300
C      0.057300    0.028400    0.001000
C      0.813700   -0.473600    1.252900
C      2.201100    0.163200    1.369500
O      0.115200   -0.063300    2.438800
C      0.895000   -2.017000    1.202000
C      1.538000   -2.676000    2.425700
H      0.739600    2.099400   -0.196600
H     -0.859100    1.794300   -0.875400
H     -0.643300    1.884500    0.883100
H     -0.910300   -0.493400   -0.032300
H      0.601000   -0.295800   -0.895300
H      2.121800    1.250600    1.432300
H      2.709000   -0.182300    2.272400
H      2.818300   -0.092100    0.502600
H     -0.768300   -0.446800    2.403500
H     -0.129800   -2.398700    1.086400
H      1.427700   -2.313900    0.289800
H      1.074700   -2.309600    3.345900
H      1.416700   -3.762800    2.387700
H      2.610500   -2.468600    2.485400
