14
gdb_264
C     -0.195700    1.476100    0.121100
C      0.273800    0.044400   -0.131300
N      0.952200   -0.519500    1.025500
C      0.713400   -1.812900    1.432400
N      1.577100   -2.250800    2.435600
O     -0.152200   -2.525700    0.959400
H      0.646400    2.140000    0.348500
H     -0.700000    1.874100   -0.765000
H     -0.892300    1.514100    0.963600
H     -0.570000   -0.617800   -0.334500
H      0.926600    0.013400   -1.015700
H      1.836400   -0.109500    1.283000
H      1.900900   -1.560800    3.097800
H      1.244500   -3.098200    2.871200
