18
gdb_16680
C     -0.152600    1.528800    0.055400
C      0.018400    0.015700    0.014700
C      0.771600   -0.609000   -1.205100
C      2.098700   -0.278200   -0.463300
C      1.240700   -0.586600    0.810300
C      0.975400   -2.068700    0.593200
O      1.015000   -2.975800    1.379700
C      0.625700   -2.115300   -0.915000
H      0.775500    2.074000   -0.135500
H     -0.883600    1.847100   -0.696100
H     -0.526900    1.845900    1.034300
H     -0.946000   -0.454900    0.241400
H      0.584000   -0.270100   -2.224400
H      2.966800   -0.914500   -0.657800
H      2.392100    0.768800   -0.528000
H      1.514900   -0.271600    1.815400
H     -0.383700   -2.507800   -1.073400
H      1.330100   -2.746700   -1.465500
