16
gdb_5642
C      0.045300    1.571200    0.016300
C      0.001000    0.043200   -0.056900
N      0.653600   -0.490400   -1.239700
C      0.075600   -0.816600   -2.464700
C      1.060300   -1.215000   -3.276000
O      2.268900   -1.142300   -2.602900
C      2.018500   -0.675400   -1.328300
N      2.862400   -0.452200   -0.404900
H      1.082600    1.914200    0.034400
H     -0.459900    2.024100   -0.842600
H     -0.449900    1.919200    0.928300
H      0.512000   -0.386900    0.809000
H     -1.031700   -0.320300   -0.054600
H     -0.985500   -0.743300   -2.632000
H      1.089200   -1.566000   -4.291500
H      3.803100   -0.682500   -0.711700
