17
gdb_18514
C      0.045000    1.551500   -0.078300
C      0.037800    0.097400   -0.012900
C      0.036600   -1.107300    0.027800
C      0.032400   -2.555100    0.096000
C      0.268300   -3.245700    1.480000
C     -1.117700   -3.854500    1.309700
C     -2.139000   -2.816500    1.080200
N     -1.319900   -3.244600   -0.069300
H      0.983000    1.924100   -0.504400
H     -0.773000    1.922300   -0.705800
H     -0.069600    1.999000    0.915200
H      0.695900   -2.968100   -0.668300
H      1.079600   -3.974200    1.440600
H      0.413300   -2.592700    2.344200
H     -1.374200   -4.890200    1.507400
H     -3.172100   -3.137700    0.991200
H     -2.004400   -1.813300    1.477600
