22
gdb_8316
C      0.028300    1.391400   -0.034200
O      0.124100   -0.011000   -0.051300
C      0.539300   -0.551100    1.186000
C      0.635200   -2.055300    1.052300
C      1.757200   -2.658700    0.165000
C      1.954600   -3.772600    1.232300
C      3.361800   -4.246500    1.559500
C      1.205800   -2.863400    2.249600
H      0.996700    1.866400    0.192600
H     -0.296300    1.711900   -1.027500
H     -0.704800    1.744000    0.709400
H      1.519900   -0.132200    1.476700
H     -0.175100   -0.278600    1.984200
H     -0.341800   -2.447000    0.750600
H      1.499900   -2.958600   -0.853100
H      2.626500   -1.992100    0.121200
H      1.323300   -4.633400    0.982600
H      4.011200   -3.401100    1.815000
H      3.364000   -4.937200    2.410600
H      3.814500   -4.767400    0.708100
H      1.912700   -2.262800    2.834800
H      0.497900   -3.332200    2.938000
