17
gdb_1251
C      0.043900    1.571700    0.123300
C      0.007400    0.046400    0.039900
O      0.654900   -0.551100    1.161100
C     -1.422000   -0.492000   -0.128700
C     -1.460800   -2.021900   -0.270400
C     -2.864100   -2.566900   -0.178800
O     -3.398000   -3.262000   -1.004300
H      1.071500    1.919400    0.258100
H     -0.362400    2.029200   -0.784100
H     -0.553800    1.929200    0.971700
H      0.606000   -0.278800   -0.820300
H      0.253600   -0.186900    1.958500
H     -2.017200   -0.183900    0.744100
H     -1.887000   -0.020600   -1.002900
H     -1.015100   -2.351700   -1.213400
H     -0.874200   -2.448700    0.554600
H     -3.407000   -2.267300    0.750700
