15
gdb_15544
O      0.125500    1.411700   -0.146400
C      0.033700    0.014100   -0.018300
C      0.714300   -0.585700    1.192200
C     -0.001500   -1.557800    1.750300
C     -1.307300   -1.801100    1.030400
C     -1.435700   -0.553600    0.103700
C     -2.299400    0.458100    0.709400
N     -2.954100    1.271200    1.206900
H     -0.286700    1.818300    0.626400
H      0.481900   -0.373500   -0.941600
H      1.698200   -0.252300    1.500200
H      0.303700   -2.156800    2.600600
H     -1.261000   -2.715900    0.426200
H     -2.161200   -1.912000    1.704800
H     -1.845900   -0.803800   -0.877700
