14
gdb_19450
C     -0.062500   -1.210700   -0.082900
C     -0.025900   -0.010100   -0.025700
C     -0.013800    1.436300    0.012000
C      0.060100    2.099400    1.445300
O      1.481800    1.765700    1.464700
C      1.408900    2.124500    0.050900
C      1.014500    3.608600    0.116900
C      0.086100    3.591300    1.076600
H     -0.084400   -2.271600   -0.123000
H     -0.739100    1.868000   -0.681700
H     -0.509400    1.736100    2.298300
H      2.248800    1.787500   -0.553100
H      1.398900    4.414700   -0.489600
H     -0.521700    4.378800    1.495800
