14
gdb_4206
O     -0.167400    1.328500    0.015400
N     -0.003900   -0.071800    0.089300
C     -1.128300   -0.651900    0.124400
C     -1.504800   -2.075500    0.054300
C     -2.859600   -2.185400    0.700400
C     -3.282700   -0.822200    1.226400
C     -2.585100   -0.294000   -0.048100
N     -2.776400   -1.714900   -0.712000
H      0.744400    1.632200   -0.045500
H     -0.899000   -2.933900   -0.203600
H     -3.277300   -3.157300    0.939900
H     -4.367500   -0.706800    1.161400
H     -2.921900   -0.472000    2.197400
H     -2.895400    0.606300   -0.569200
