20
gdb_12116
C      0.288400    0.944500    1.145000
C     -0.004300   -0.018300    0.006300
C      0.686200    0.226100   -1.289200
N      1.085400   -0.907900   -0.438000
C     -1.368000   -0.678300    0.081900
C     -1.501900   -1.708200    1.186900
C     -2.547500    0.130600   -0.328500
N     -2.113700   -1.022000   -1.137900
H      1.275900    1.402400    1.025700
H     -0.454100    1.748100    1.183900
H      0.271600    0.431500    2.112300
H      0.243000   -0.055400   -2.240500
H      1.337700    1.094800   -1.351500
H      1.945900   -0.686600    0.058200
H     -1.380300   -1.258700    2.178200
H     -2.486000   -2.179700    1.140800
H     -0.740500   -2.484700    1.064800
H     -3.500400    0.006900    0.179800
H     -2.369100    1.130900   -0.717000
H     -1.629800   -0.694500   -1.968500
