17
gdb_13551
C     -0.447900    1.364900    0.005300
N      0.015000   -0.014800    0.057600
C      1.395800   -0.302400   -0.305100
C      0.927800   -0.448700    1.102600
C      1.434200    0.491400    2.189500
N      0.403300    0.673400    3.215700
C      2.712900   -0.029500    2.725600
N      3.689900   -0.442500    3.186300
H      0.346200    2.118300    0.131000
H     -0.911200    1.535500   -0.971000
H     -1.197900    1.522000    0.784400
H      1.564600   -1.177200   -0.926600
H      2.053700    0.540700   -0.519300
H      0.717900   -1.448900    1.482000
H      1.647500    1.472900    1.754300
H      0.173400   -0.224900    3.632800
H      0.756700    1.258300    3.967600
