15
gdb_2681
C     -0.067000    1.368400   -0.269500
O     -0.038000   -0.039400   -0.300500
C     -1.190800   -0.605800    0.292300
C     -1.130400   -2.058700    0.233300
C     -1.109200   -3.260700    0.192300
C     -1.056900   -4.715400    0.162100
O     -1.871300   -5.206900   -0.895600
H      0.852000    1.720800   -0.742800
H     -0.930400    1.773300   -0.821700
H     -0.108400    1.755700    0.761300
H     -1.282100   -0.277900    1.343100
H     -2.101700   -0.254600   -0.223800
H     -0.007200   -5.028000    0.037700
H     -1.390900   -5.106700    1.137200
H     -1.798000   -6.166800   -0.890800
