12
gdb_6636
N      0.284200    0.774800    0.647800
C     -0.349800    0.537400   -0.533700
O     -0.098500    1.119400   -1.569800
C     -1.378100   -0.496600   -0.450000
C     -2.236800   -1.339200   -0.444000
C     -3.281000   -2.359000   -0.450900
C     -3.484600   -2.982400    0.863300
N     -3.649800   -3.476400    1.893300
H      1.006500    1.475900    0.670900
H      0.048500    0.273900    1.486800
H     -4.232200   -1.922800   -0.781900
H     -3.035900   -3.145100   -1.176600
