20
gdb_11022
C      0.008400    1.502100    0.081700
C     -0.007100    0.007700    0.005300
C      0.009700   -0.752900   -1.095500
C     -0.041000   -2.231900   -0.783100
C      0.002200   -2.290600    0.750100
C     -0.766800   -3.386800    1.447900
C      1.233500   -1.715600    1.404200
C     -0.002600   -0.847800    1.233700
H      0.889300    1.863700    0.627200
H      0.010800    1.956900   -0.912700
H     -0.868200    1.879100    0.624300
H      0.069300   -0.372200   -2.109800
H     -0.963900   -2.691300   -1.166900
H      0.788000   -2.787600   -1.241700
H     -0.357100   -4.375600    1.207500
H     -0.728100   -3.271200    2.535900
H     -1.821500   -3.385100    1.148600
H      1.463400   -2.068800    2.405200
H      2.101500   -1.480000    0.795700
H     -0.548700   -0.534500    2.118700
