20
gdb_11461
C      0.100800    1.398100    0.460100
C      0.073000   -0.062600    0.042300
C      1.055900   -0.461100   -1.062800
C      1.248200   -1.964100   -0.801500
C      1.108300   -2.071300    0.729700
C      2.444000   -2.131300    1.471000
O      2.266800   -1.967200    2.860900
O      0.438300   -0.875000    1.163800
H      1.110700    1.690000    0.765300
H     -0.212900    2.039600   -0.369500
H     -0.576700    1.571700    1.300900
H     -0.950800   -0.331300   -0.268700
H      0.677900   -0.242500   -2.064600
H      1.999100    0.081200   -0.931000
H      0.467000   -2.544700   -1.300800
H      2.213400   -2.339200   -1.153800
H      0.496900   -2.932300    1.029100
H      2.915700   -3.108100    1.314300
H      3.119600   -1.362800    1.055600
H      1.673800   -1.210500    2.952300
