17
gdb_9532
C     -0.120000    1.386600    0.026300
O      0.155000   -0.008400    0.051000
C      0.741400   -0.530100   -1.118700
C      2.137600    0.007200   -1.404200
C      0.586000   -2.082600   -1.133700
N     -0.235500   -1.926500   -2.338800
C     -0.224500   -0.556900   -2.356400
O     -0.768200    0.265000   -3.048300
H      0.798400    1.987800    0.066000
H     -0.693000    1.668400   -0.863800
H     -0.710600    1.596800    0.920800
H      2.775700   -0.111800   -0.522700
H      2.590700   -0.530700   -2.242000
H      2.104200    1.066500   -1.672300
H      1.506900   -2.653000   -1.286800
H      0.043300   -2.455100   -0.261300
H     -0.774800   -2.592800   -2.871800
