16
gdb_6683
O      0.118600    0.399900    0.866300
C      0.060700    1.281900   -0.013000
O      0.896800    1.801300   -0.753100
C     -1.427900    1.885800   -0.201900
C     -2.419800    0.830300    0.231900
N     -3.774500    1.397300    0.460300
C     -4.852600    1.096200   -0.195200
N     -6.043000    1.691100   -0.056500
H     -6.193700    2.453400    0.584400
H     -6.813800    1.416700   -0.640400
H     -1.493100    2.760900    0.460000
H     -1.582900    2.223800   -1.229500
H     -2.534200    0.028600   -0.503300
H     -2.041100    0.391000    1.160500
H     -3.800600    2.167400    1.120700
H     -4.785800    0.294800   -0.923400
