18
gdb_1540
C      0.047300    1.599800    0.043400
C     -0.013300    0.070100   -0.004900
C      0.646300   -0.497400   -1.266700
C      0.687100   -2.044600   -1.312100
C     -0.705400   -2.700500   -1.399200
C      1.518400   -2.485000   -2.438600
N      2.167000   -2.822900   -3.333800
H      1.083100    1.955800    0.029200
H     -0.466500    2.043100   -0.816400
H     -0.426800    1.986400    0.950500
H      0.483800   -0.345600    0.881700
H     -1.059800   -0.251000    0.051000
H      0.124800   -0.132000   -2.160200
H      1.673700   -0.121800   -1.335400
H      1.182800   -2.400400   -0.398700
H     -0.619900   -3.788000   -1.462200
H     -1.297900   -2.455900   -0.514800
H     -1.242400   -2.349100   -2.285200
