10
gdb_21842
O     -0.045400    0.007600    0.108600
C     -0.003500    1.179100   -0.071300
O      1.074500    1.922400    0.367500
C      1.034600    3.263800    0.197300
C      2.055200    4.111100   -0.095200
O      1.559600    5.348200   -0.100500
N      0.177300    5.243900    0.191100
N     -0.093500    4.022800    0.367200
H     -0.760300    1.796300   -0.577400
H      3.103500    3.977200   -0.297800
