14
gdb_18821
O      0.027000   -0.040300    0.085500
C      0.003600    1.153400   -0.043400
N     -1.108600    1.977100   -0.019300
C     -0.700000    3.351100   -0.065200
C      0.475400    3.830800    0.811500
C      1.284300    2.627300    1.266500
N      1.181500    2.022900   -0.141400
C      0.675800    3.354300   -0.615400
H     -1.967000    1.648600    0.391800
H     -1.429100    4.084400   -0.384400
H      0.508300    4.837600    1.209700
H      2.329500    2.869100    1.468500
H      0.893700    1.991400    2.068100
H      1.047100    3.817200   -1.520400
