17
gdb_11532
O     -0.223800    1.377500    0.000800
C      0.040800    0.004300   -0.078600
C      0.886800   -0.326000   -1.326400
C      0.169000    0.038900   -2.606100
C      0.465800   -0.680300   -3.866900
N     -0.831100   -0.873200   -3.188700
C      0.738400   -0.473200    1.177500
O      1.013900    0.280900    2.079200
H      0.116500    1.661000    0.864200
H     -0.905200   -0.565200   -0.147200
H      1.829500    0.230900   -1.254800
H      1.134500   -1.396700   -1.333100
H     -0.122800    1.084200   -2.663000
H      0.411900   -0.161800   -4.819700
H      1.196200   -1.485600   -3.833000
H     -0.821100   -1.760700   -2.689400
H      0.986200   -1.553900    1.224000
