15
gdb_11256
C     -0.056500    1.396400    0.068100
N      0.000000   -0.022600   -0.208200
C     -1.159700   -0.875400    0.053100
C     -0.494700   -2.290300    0.026900
N      0.963600   -2.058800    0.162000
C      1.113800   -0.795700    0.018800
C     -1.010600   -3.176500    1.073200
N     -1.449900   -3.859000    1.895100
H      0.928800    1.837900   -0.101800
H     -0.767600    1.888000   -0.603300
H     -0.359900    1.608200    1.104900
H     -1.598400   -0.650400    1.035700
H     -1.934900   -0.757500   -0.708200
H     -0.678500   -2.778600   -0.939000
H      2.088100   -0.314700    0.032900
