18
gdb_9122
C     -0.029200    1.588200    0.016600
C      0.020600    0.050300   -0.023000
C      0.689100   -0.481400   -1.202700
C      1.243400   -0.921900   -2.181300
C      1.910100   -1.445300   -3.358300
O      2.024100   -2.637700   -3.553700
C      2.450300   -0.396500   -4.319900
C      3.141700   -0.995800   -5.541400
H      0.979100    2.010500    0.012300
H     -0.565400    1.982700   -0.850500
H     -0.541100    1.926600    0.921900
H      0.530300   -0.330600    0.871400
H     -0.997300   -0.358300    0.018700
H      1.610900    0.251100   -4.607300
H      3.127500    0.254900   -3.750900
H      2.453400   -1.626700   -6.109400
H      3.511700   -0.205000   -6.199800
H      3.985700   -1.623200   -5.243900
