15
gdb_18748
O     -0.032800    1.437900   -0.115400
C      0.012600    0.041100    0.020000
C      0.266900   -0.565700    1.440100
C     -1.116000   -1.270400    1.369200
N     -2.237400   -0.484500    1.882100
C     -2.488800    0.187700    0.695200
O     -3.268600    1.049500    0.405200
C     -1.390100   -0.625300   -0.032000
H      0.867300    1.777600   -0.085100
H      0.680100   -0.411900   -0.725500
H      1.120300   -1.247100    1.480900
H      0.352200    0.172600    2.240700
H     -1.172900   -2.341400    1.563200
H     -2.440800   -0.190900    2.828400
H     -1.676400   -1.169700   -0.929200
