19
gdb_8385
C      0.229500    1.499400   -0.491300
C      0.161500    0.023600   -0.183000
N      1.443000   -0.649600    0.132500
C      0.409900   -0.526100    1.165700
C      0.698100    0.164900    2.505000
C      0.400600   -1.198000    3.199500
O     -0.327000   -1.227000    4.399100
C     -0.262500   -1.704700    1.882400
H      0.953800    1.995600    0.159800
H      0.538600    1.668200   -1.528500
H     -0.747800    1.974400   -0.349500
H     -0.543400   -0.538600   -0.796300
H      1.446100   -1.593300   -0.248900
H      1.690500    0.598800    2.639400
H     -0.061500    0.915000    2.757500
H      1.326400   -1.741900    3.404400
H     -1.140400   -0.727900    4.267600
H     -1.353900   -1.602600    1.920600
H     -0.017800   -2.717100    1.547200
