15
gdb_1611
C     -0.003800    1.417900   -0.118700
N     -0.003000   -0.035900   -0.188400
C      1.226400   -0.656100    0.286000
C     -1.219900   -0.662200   -0.004500
N     -2.291400   -0.010200    0.250800
C     -1.270400   -2.154500   -0.283300
O     -2.242800   -2.816400   -0.025500
H      0.931800    1.790800   -0.545600
H     -0.852000    1.806400   -0.682200
H     -0.093300    1.783300    0.914500
H      1.433400   -0.400500    1.336700
H      1.179900   -1.743200    0.213000
H      2.070400   -0.311400   -0.319800
H     -3.073900   -0.668000    0.249500
H     -0.395300   -2.600400   -0.797100
