18
gdb_14203
C     -0.145800    1.521600   -0.056100
C     -0.019300    0.037200    0.021500
C      0.011000   -1.058100   -1.036400
C      1.299600   -1.651700   -0.478800
C      0.911800   -0.950400    0.853000
C     -0.369700   -1.697700    1.327600
C     -1.031700   -1.069100    0.106300
O     -2.382000   -0.929000   -0.148300
H      0.766100    1.990400   -0.443600
H     -0.972400    1.795800   -0.720000
H     -0.353900    1.959800    0.927100
H     -0.321100   -0.978300   -2.065000
H      1.418200   -2.741900   -0.455200
H      2.184400   -1.199500   -0.936800
H      1.669300   -0.650300    1.574100
H     -0.315900   -2.790200    1.414600
H     -0.770900   -1.270300    2.251100
H     -2.690600   -1.719700   -0.604500
