9
gdb_3640
C      0.065600   -1.164300   -0.004700
C     -0.012600    0.034600    0.003000
C     -0.090800    1.443000    0.011800
N     -1.155200    2.198500    0.029700
C     -0.604200    3.451600    0.029400
N      0.701800    3.488900    0.012600
O      1.060100    2.144200    0.000500
H      0.128400   -2.225400   -0.011400
H     -1.190900    4.358500    0.042000
