16
gdb_5640
C      0.002600    1.554500   -0.002700
C     -0.016500    0.024800    0.028400
N     -1.363000   -0.528000    0.024000
C     -2.069800   -1.041100    1.086700
N     -3.271800   -1.427200    0.744800
C     -3.379700   -1.156200   -0.605600
C     -2.209400   -0.602600   -1.053800
O     -1.755300   -0.151900   -2.252000
H      1.034800    1.917700    0.014000
H     -0.477900    1.925400   -0.911400
H     -0.523800    1.968400    0.862200
H      0.522900   -0.378300   -0.834300
H      0.479200   -0.350800    0.928100
H     -1.632500   -1.104000    2.072300
H     -4.275600   -1.376300   -1.165800
H     -2.437200   -0.307800   -2.912600
