20
gdb_8945
C     -0.036900    1.616300   -0.094100
C      0.012900    0.083100   -0.004300
C      0.719200   -0.511300   -1.226600
O      0.012100   -0.109000   -2.391200
C      0.663400   -0.449800    1.284100
O      2.020300   -0.010800    1.449200
C     -0.112500   -0.147600    2.569200
O      0.549900   -0.698800    3.688200
H      0.968700    2.055300   -0.061300
H     -0.478900    1.910600   -1.047500
H     -0.628900    2.059400    0.711000
H     -1.019300   -0.293300   -0.018700
H      1.763000   -0.164100   -1.248000
H      0.739200   -1.609200   -1.137900
H      0.508500   -0.401000   -3.160800
H      0.750300   -1.540800    1.210400
H      2.016100    0.953600    1.457100
H     -0.242600    0.942800    2.682800
H     -1.112500   -0.593300    2.523100
H      1.489200   -0.533500    3.532700
