16
gdb_17951
O     -0.067000    1.427100   -0.055100
C      0.017900    0.055100   -0.021700
C     -1.152100   -0.882700   -0.118200
C     -1.002100   -1.847000   -1.296400
C      0.449300   -1.594000   -1.801200
C      1.102100   -0.885500   -0.620900
O      1.005300   -1.762000    0.553500
C     -0.123300   -1.018000    1.013700
H      0.650900    1.790500    0.476100
H     -2.124300   -0.507900    0.183300
H     -1.133700   -2.885300   -0.979000
H     -1.744800   -1.643600   -2.072600
H      0.974100   -2.515700   -2.066900
H      0.458500   -0.932100   -2.675600
H      2.119700   -0.513600   -0.760400
H     -0.360400   -1.038900    2.070800
