16
gdb_19048
O      0.022600    1.444000    0.281400
C      0.047600    0.047100    0.036500
C      0.614900   -0.681500    1.274100
C     -0.221100   -1.676100    1.622300
C     -1.319600   -1.348200    2.637900
C     -2.132400   -1.052400    1.319200
C     -1.364800   -0.543500    0.034700
C     -1.248700   -1.951400    0.508900
H      0.892200    1.801400    0.075000
H      0.530300   -0.159000   -0.932400
H      1.145400   -0.075400    2.004400
H     -1.791900   -2.192800    3.153200
H     -1.114400   -0.537900    3.342700
H     -3.219000   -1.015200    1.289000
H     -2.039500   -0.289900   -0.781000
H     -1.458000   -2.874800   -0.014000
