16
gdb_16034
C     -0.002300    1.541500    0.016300
C      0.083900    0.032800    0.054300
C      1.333800   -0.744800   -0.187000
N      2.501200    0.003200    0.301400
C      1.991600   -0.100900    1.708000
C      0.686600   -0.755000    1.220100
C     -0.028400   -1.768200    1.914300
N     -0.604100   -2.598200    2.482200
H      0.962700    1.997500    0.245500
H     -0.294600    1.872500   -0.985600
H     -0.749500    1.912600    0.724400
H     -0.793400   -0.484600   -0.327400
H      1.419400   -1.548000   -0.909400
H      3.353400   -0.534000    0.190600
H      2.575700   -0.791100    2.321400
H      1.901400    0.859500    2.225000
