15
gdb_21042
C     -0.000800    1.388800   -0.078500
N      0.049000   -0.049000    0.013200
N      0.081900   -0.815200   -1.126200
C      0.119500   -2.065700   -0.684700
N      0.242400   -3.131400   -1.577500
C      0.094600   -2.142500    0.731400
C      0.047800   -0.817700    1.119900
O      0.006900   -0.219200    2.333100
H      0.869300    1.763300   -0.626000
H     -0.907600    1.709600   -0.601200
H      0.000200    1.803000    0.930100
H      0.033700   -2.838300   -2.524000
H     -0.323700   -3.930200   -1.324300
H      0.131300   -3.015400    1.362400
H      0.044500   -0.901000    3.010400
