19
gdb_14426
C     -0.045000    1.534200    0.013100
N      0.095700    0.084700    0.016400
C      0.765400   -0.569900   -1.099700
C      2.299700   -0.611500   -0.828800
C      2.504300    0.045300    0.532500
C      1.111800   -0.554900    0.899200
C      1.345900   -1.639700   -0.236300
C      1.279400   -3.129700   -0.258000
H      0.873300    2.089300   -0.234400
H     -0.810200    1.811900   -0.720000
H     -0.393000    1.863300    0.998300
H      0.342300   -0.631400   -2.096100
H      3.018700   -0.758500   -1.625700
H      3.292700   -0.460400    1.096800
H      2.644300    1.129000    0.605900
H      0.820400   -0.724600    1.935700
H      0.292800   -3.490000    0.054800
H      1.467000   -3.508800   -1.268600
H      2.026700   -3.579400    0.406200
