16
gdb_12427
O     -0.257400    1.348400   -1.696200
C     -0.111800    1.606000   -0.518100
C     -1.303500    1.612000    0.439900
C     -1.475600    2.927800    1.160600
C     -0.585900    3.425600    2.013500
C      0.714300    2.745900    2.383100
C      1.592300    2.295000    1.242600
C      1.244300    1.853800    0.026400
H     -2.187100    1.355400   -0.146000
H     -1.142000    0.806500    1.171900
H     -2.380200    3.487800    0.942700
H     -0.786000    4.375600    2.500700
H      1.303900    3.412100    3.020300
H      0.500000    1.869700    3.020600
H      2.659300    2.352000    1.453200
H      2.026600    1.617000   -0.690200
