20
gdb_14341
C     -0.148600    1.571800    0.041000
C      0.023600    0.050000    0.033500
C      0.768400   -0.487600   -1.237900
C      1.495300   -1.746800   -0.731200
C      3.048000   -1.993200   -0.711500
C      2.957300   -2.204700    0.848100
C      1.625400   -1.497700    0.747100
C      0.896600   -0.475200    1.178800
H      0.824500    2.075800    0.020500
H     -0.719000    1.907200   -0.832100
H     -0.682400    1.909900    0.935800
H     -0.980000   -0.400700    0.082800
H      0.090500   -0.665400   -2.078700
H      1.500200    0.265500   -1.557300
H      0.965200   -2.673600   -0.984200
H      3.433900   -2.828500   -1.301000
H      3.604200   -1.085000   -0.957900
H      2.867600   -3.267900    1.096400
H      3.728900   -1.760000    1.481300
H      0.936300    0.004900    2.150700
