17
gdb_16003
C      0.005300    1.534000    0.017100
C      1.309300    0.757500   -0.058500
C      0.011600    0.030200    0.054600
C     -0.408700   -0.740400    1.281300
C     -1.918200   -1.001300    1.194200
N     -2.328500   -1.505300   -0.113800
C     -1.569200   -1.285600   -1.099100
O     -0.391800   -0.608100   -1.151500
H     -0.230000    2.070400    0.930500
H     -0.345500    2.004100   -0.894100
H      1.808100    0.718400   -1.020100
H      1.970500    0.760500    0.801200
H      0.130600   -1.695200    1.313000
H     -0.148500   -0.184000    2.186900
H     -2.230200   -1.728100    1.952000
H     -2.476400   -0.078900    1.403100
H     -1.810800   -1.667900   -2.089000
