24
gdb_7396
C     -0.089500    1.397400    0.014700
O     -0.061600   -0.007500    0.000100
C      0.644600   -0.533100   -1.106400
C      0.607700   -2.064400   -1.042500
C     -0.853600   -2.541600   -1.039700
C      1.445300   -2.705800   -2.178800
C      2.921100   -2.272500   -2.150000
C      1.369000   -4.241000   -2.148800
H      0.924000    1.827600    0.065300
H     -0.587900    1.807700   -0.878600
H     -0.647300    1.706600    0.902300
H      0.187000   -0.184200   -2.050800
H      1.678400   -0.157500   -1.089000
H      1.065400   -2.351100   -0.084300
H     -1.314400   -2.391000   -2.024100
H     -0.937600   -3.601500   -0.788800
H     -1.430200   -1.973000   -0.307800
H      1.013400   -2.371100   -3.134500
H      3.490500   -2.802500   -2.920600
H      3.053100   -1.202500   -2.329200
H      3.378900   -2.508800   -1.181700
H      0.351600   -4.610300   -2.296700
H      1.993600   -4.671000   -2.938500
H      1.732600   -4.632400   -1.190700
