19
gdb_12240
C      0.095200    1.578600    0.059300
C      0.038400    0.058500   -0.125500
C     -1.357300   -0.539100    0.026100
C     -1.473100   -2.091500   -0.047700
C     -2.075600   -2.002300    1.369700
O     -2.554200   -2.763900    2.170600
N     -1.893300   -0.640600    1.398500
C     -2.385300    0.330300    2.343400
H      1.108000    1.956100   -0.110200
H     -0.571000    2.087600   -0.646100
H     -0.201800    1.875600    1.069600
H      0.400200   -0.197500   -1.129800
H      0.711700   -0.436200    0.585600
H     -2.060100   -0.027000   -0.646900
H     -2.158300   -2.481800   -0.802300
H     -0.521300   -2.624100   -0.104800
H     -2.933400   -0.216400    3.115300
H     -1.576800    0.892900    2.823500
H     -3.066900    1.043600    1.863100
