22
gdb_11566
C      0.052700    1.457500    0.257900
C     -0.041300   -0.045700   -0.022900
C     -1.476000   -0.596200   -0.130600
C     -2.237900    0.011100   -1.317700
C     -1.443600   -2.137500   -0.201600
C     -2.796000   -2.790100   -0.044200
C     -2.983800   -4.024000    0.729000
O     -3.363800   -2.758700    1.271500
H      1.094400    1.762700    0.398800
H     -0.354200    2.057000   -0.562000
H     -0.496800    1.723100    1.168200
H      0.503200   -0.281500   -0.948400
H      0.478100   -0.586200    0.778800
H     -2.008000   -0.330400    0.793700
H     -1.735300   -0.224200   -2.264400
H     -3.262100   -0.368100   -1.380700
H     -2.304500    1.099600   -1.239000
H     -1.005900   -2.454000   -1.159300
H     -0.787400   -2.519200    0.589600
H     -3.522700   -2.588000   -0.832500
H     -3.805700   -4.698000    0.490400
H     -2.122100   -4.495100    1.201200
