14
gdb_18662
O     -0.020000   -0.017900    0.274700
C     -0.037300    1.170500    0.064100
N     -1.220800    1.862900   -0.144200
C     -1.329000    3.252700   -0.067600
C     -0.252300    4.036500    0.017400
C      1.088700    3.410900   -0.018700
C      1.648800    2.640700    1.140200
N      1.145300    1.939900   -0.045300
H     -2.049300    1.290200   -0.123200
H     -2.343700    3.631900   -0.075700
H     -0.348400    5.113100    0.064000
H      1.813200    3.873100   -0.688400
H      2.722400    2.574800    1.290500
H      1.048700    2.595900    2.045000
