10
gdb_23770
F     -0.020300    0.025600    0.004400
C     -0.052500    1.348800    0.011300
C     -1.209100    2.043600    0.029600
N     -1.237500    3.424700    0.036800
C     -0.101000    4.010600    0.025100
O      1.105700    3.421200    0.006600
C      1.239800    2.017400   -0.002000
O      2.330400    1.533400   -0.018400
H     -2.163900    1.528500    0.039300
H     -0.015500    5.092400    0.029300
