16
gdb_2322
C     -0.008200    1.581500   -0.243700
C     -0.028500    0.089000    0.003200
C      1.206900   -0.736900   -0.118100
N      0.574100   -0.533600    1.184700
C      1.273300    0.280800    2.162900
C      2.006100   -0.616700    3.150000
O      2.987900   -0.286600    3.761400
H      0.970900    2.024600   -0.046300
H     -0.259700    1.786500   -1.289400
H     -0.748000    2.096200    0.379300
H     -0.970700   -0.384900   -0.270100
H      1.173000   -1.748500   -0.513600
H      2.136400   -0.203400   -0.316600
H      1.994100    1.006800    1.759200
H      0.531100    0.847100    2.745300
H      1.538100   -1.618600    3.271800
