14
gdb_18785
O      0.020300    0.027500   -0.118000
C     -0.009500    1.215800    0.011700
C     -1.145400    2.254400    0.008700
C     -1.294600    2.954100    1.397300
C      0.013400    3.729300    1.131200
O      1.179200    2.895900    1.341900
C      1.073400    2.325500    0.015300
C     -0.050200    3.337300   -0.371100
H     -2.043600    2.017300   -0.560000
H     -2.155800    3.630200    1.383500
H     -1.333700    2.330600    2.293600
H      0.149200    4.726200    1.553200
H      2.040900    2.165500   -0.463700
H     -0.064100    3.984400   -1.241700
