19
gdb_13103
C     -0.613500    0.063900    0.801700
C      0.375200    0.527600   -0.268400
N      0.649200   -0.557200   -1.208000
C      1.830300   -0.831000   -1.509800
O      3.026900   -0.255800   -1.099300
C      3.798100   -1.229900   -1.864100
C      2.493900   -1.875700   -2.388500
C      2.212000   -3.335400   -2.056000
H     -1.530700   -0.312000    0.339200
H     -0.184700   -0.743700    1.403200
H     -0.872400    0.889400    1.472400
H     -0.070500    1.354800   -0.836400
H      1.289300    0.915300    0.200300
H      4.436400   -0.734500   -2.599900
H      4.401000   -1.857700   -1.201100
H      2.324300   -1.681600   -3.451800
H      2.404100   -3.542800   -0.998400
H      1.164100   -3.572700   -2.258800
H      2.837700   -4.003800   -2.655900
