15
gdb_19998
N     -0.200900   -1.116000    0.368600
C     -0.099500    0.027800    0.235900
C      0.012200    1.457800    0.043400
O      0.584700    2.206200    1.117600
C      1.337400    2.107600   -0.093900
C      2.621200    1.361200   -0.060300
C      3.538900    1.430500   -1.260200
C      3.919100    2.132800    0.012900
H     -0.856900    1.912200   -0.429000
H      1.349900    3.030100   -0.678400
H      2.578700    0.418400    0.474100
H      4.067600    0.526600   -1.538500
H      3.227400    2.039500   -2.102700
H      3.863400    3.216200    0.033200
H      4.714200    1.717100    0.620500
