17
gdb_14281
C     -0.078800    1.559700    0.064900
C      0.035800    0.055900   -0.034300
C      0.690000   -0.671100   -1.198700
C      1.648200    0.070600   -2.115400
C      2.794100    0.550500   -1.205600
O      3.709300    1.283500   -1.504400
N      2.567000    0.012100    0.040600
C      1.332800   -0.702500    0.173300
H      0.836800    2.070300   -0.243300
H     -0.893100    1.930900   -0.566600
H     -0.293100    1.863600    1.095100
H     -0.830700   -0.475700    0.353300
H      0.195000   -1.554900   -1.582000
H      2.055800   -0.584000   -2.892100
H      1.215500    0.937900   -2.622500
H      3.103400    0.341700    0.827900
H      1.361600   -1.598800    0.783200
