13
gdb_4445
N      0.227900    1.396900    0.103600
C      0.015800    0.036200    0.014100
C     -1.081300   -0.723300   -0.001700
N     -2.422900   -0.387000   -0.018200
O     -0.659200   -2.080800    0.041500
C      0.689400   -2.078700    0.037000
N      1.399000   -3.116700    0.032200
O      1.135600   -0.766000    0.037500
H      0.930100    1.732200   -0.546500
H     -0.640200    1.905800   -0.009700
H     -2.916000   -0.660500    0.827000
H     -2.919500   -0.773000   -0.815600
H      2.385700   -2.872200    0.038300
