15
gdb_11095
O      0.044700   -0.096800   -0.170500
C      0.004100    1.089500    0.024200
C      1.204500    1.999400    0.048700
C      1.019000    3.273900   -0.838300
C      0.670900    4.099200    0.440100
C      1.236300    2.929600    1.305400
C      1.276400    5.411100    0.589400
N      1.779900    6.445700    0.704600
H     -0.970600    1.605300    0.205800
H      2.099200    1.405100   -0.137500
H      1.961800    3.589100   -1.286900
H      0.250900    3.240500   -1.613600
H     -0.411100    4.194700    0.565100
H      0.634000    2.633200    2.166600
H      2.258000    3.119500    1.636100
