15
gdb_14006
N      0.171000   -1.156100   -0.310200
C      0.120800   -0.002900   -0.245700
C      0.073400    1.441700   -0.202000
O      0.289800    2.052800    1.078000
C      1.291300    2.222800    0.097200
C      2.733400    1.729300    0.190500
C      3.118200    2.892700   -0.775800
C      1.725700    3.550300   -0.523800
H     -0.717700    1.888800   -0.801100
H      3.131600    1.870500    1.199000
H      2.932900    0.704800   -0.130000
H      3.990400    3.485500   -0.499200
H      3.234900    2.552500   -1.806600
H      1.164800    3.915200   -1.386800
H      1.765800    4.339300    0.232700
