17
gdb_11816
C     -0.626700    1.356800   -0.057500
C      0.083100    0.012600   -0.016900
N      1.358100   -0.066500   -0.813000
C      2.116800   -0.503600    0.373700
C      3.156700   -1.592100    0.474900
C      3.544600   -0.157400    0.706500
C      0.910300   -0.319100    1.244800
O      0.688400   -0.376600    2.420300
H      0.073000    2.167500    0.163200
H     -1.057500    1.538400   -1.046800
H     -1.433400    1.378300    0.681900
H     -0.618100   -0.802600   -0.242500
H      1.313800   -0.783600   -1.530300
H      3.094500   -2.264100    1.324500
H      3.467900   -2.058000   -0.455000
H      4.106400    0.349900   -0.070100
H      3.749300    0.168300    1.720900
