18
gdb_7505
C     -0.144900    1.417700    0.023800
C     -0.081200   -0.037600    0.023100
C      0.009600   -1.241400    0.040700
C      0.053600   -2.679000    0.018200
C      1.166900   -3.303100   -0.807500
C     -0.426500   -3.415100    1.275900
C     -1.309000   -3.364700    0.061300
O     -2.478500   -2.614500    0.064600
H      0.857000    1.854000    0.102400
H     -0.602800    1.802800   -0.894000
H     -0.733100    1.789300    0.870100
H      2.149100   -3.047900   -0.396400
H      1.076400   -4.393600   -0.811400
H      1.131100   -2.953600   -1.844000
H      0.076500   -4.343300    1.527300
H     -0.724800   -2.805200    2.120600
H     -1.407900   -4.269900   -0.533000
H     -2.228900   -1.686400   -0.046100
