15
gdb_15098
C      0.022700   -3.186400   -0.986300
C      0.027000   -2.073300   -0.518400
C      0.032400   -0.818200    0.007600
C      0.029200    0.295400    0.485000
C      0.054400    1.654700    1.028600
N      0.879300    2.644500    0.326500
C      2.138400    2.213800   -0.272500
C      0.973700    2.577600   -1.128200
H      0.018700   -4.165600   -1.396800
H     -0.970400    2.046100    1.059100
H      0.403400    1.617100    2.068400
H      2.969500    2.901000   -0.143600
H      2.397000    1.158400   -0.225700
H      0.471700    1.759700   -1.640100
H      0.936000    3.536000   -1.637500
