18
gdb_7381
C      0.746100    1.226400    0.004400
O      0.891200   -0.159900   -0.211700
C     -0.076100   -0.682100   -1.094400
C      0.106800   -2.205200   -1.242200
O     -1.030700   -2.726400   -1.873500
C      1.356500   -2.565900   -2.059400
C      2.715400   -2.302300   -1.468600
O      1.197100   -3.067700   -3.153900
H      0.858400    1.798100   -0.929600
H     -0.236400    1.465500    0.438600
H      1.527600    1.531400    0.704000
H     -1.093100   -0.517200   -0.708200
H     -0.016700   -0.199900   -2.084500
H      0.217400   -2.624600   -0.230200
H     -0.704100   -3.075700   -2.720400
H      2.765100   -1.283500   -1.076600
H      2.868800   -2.972000   -0.613600
H      3.490200   -2.484700   -2.214100
