15
gdb_20402
C      0.011100    1.512200   -0.045100
C      1.513800    1.949500   -0.028500
C      2.166700    0.783500    0.652800
C      3.279100    0.330400    1.275400
O      3.102200   -0.957800    1.648000
N      1.822200   -1.387600    1.259600
C      1.301300   -0.342700    0.678500
C     -0.012800   -0.047400    0.015700
H     -0.480100    1.907600    0.849600
H     -0.527000    1.904600   -0.911100
H      1.896700    2.073400   -1.049300
H      1.654600    2.906000    0.482100
H      4.235700    0.755200    1.537500
H     -0.876800   -0.437800    0.558400
H     -0.035700   -0.485300   -0.989600
