13
gdb_1259
N     -0.008700    1.382100    0.154800
C     -0.039400    0.020900    0.123200
N     -1.024100   -0.642200   -0.337900
H     -2.903300   -0.876300   -0.095500
C     -0.994700   -2.088100   -0.249700
C     -2.365400   -2.635400    0.177900
O     -3.339900   -1.714200    0.163600
O     -2.550800   -3.784200    0.473100
H      0.872700    1.846800    0.285800
H     -0.708100    1.877000   -0.376600
H      0.849200   -0.450300    0.562100
H     -0.788400   -2.524500   -1.236800
H     -0.239500   -2.486400    0.441800
