15
gdb_19601
C      0.043300    1.579500   -0.069400
C      0.066100    0.064600   -0.088500
C      0.701100   -0.706800   -1.263100
C      1.256000   -1.679900   -0.151200
C      2.354100   -0.679900    0.123000
N      1.040600   -0.632900    0.852300
C      2.145900   -0.156400   -1.268400
O      2.868800    0.284900   -2.115300
H      1.021400    2.007000   -0.309500
H     -0.678000    1.956400   -0.802100
H     -0.255600    1.940600    0.919300
H     -0.917300   -0.341800    0.166100
H      0.192700   -0.942300   -2.194200
H      1.238000   -2.748400    0.009500
H      3.252700   -0.779600    0.715400
