19
gdb_10342
C      0.419400    1.358500   -0.295200
C      0.132100   -0.144500   -0.222200
C     -1.342200   -0.524900    0.062900
C     -2.302200   -0.238000   -1.096900
O     -2.478400    1.168600   -1.213100
C     -1.396600   -2.023400    0.364400
N     -1.360200   -2.354600    1.688100
O     -1.442700   -2.865100   -0.514200
H      1.486600    1.532200   -0.468600
H     -0.150200    1.835700   -1.093200
H      0.149100    1.856600    0.642800
H      0.432400   -0.636000   -1.155400
H      0.755800   -0.587700    0.564800
H     -1.693300    0.043100    0.934800
H     -1.894200   -0.678000   -2.016600
H     -3.264000   -0.735200   -0.900300
H     -3.047600    1.332200   -1.970700
H     -1.312600   -1.665100    2.416500
H     -1.329800   -3.330100    1.936500
