11
gdb_731
C      0.002200    1.502200    0.043100
C      0.058700    0.012900   -0.050600
C     -0.137900   -0.814500   -1.131800
N      0.037800   -2.060900   -0.630500
N      0.326700   -2.026500    0.681800
N      0.339600   -0.773800    1.033100
H      0.960000    1.910300    0.380900
H     -0.236300    1.947800   -0.925900
H     -0.758300    1.821100    0.762800
H     -0.376400   -0.629000   -2.165500
H     -0.020200   -2.949900   -1.100400
