18
gdb_15557
C     -0.707700    1.266300    0.053300
C      0.091900   -0.034600   -0.034300
C      1.269100   -0.019600   -1.046500
C      2.251400   -0.993200   -0.443000
C      1.943600   -1.303300    0.816200
C      0.721600   -0.549700    1.305700
C      1.166500    0.572500    2.231900
O      0.792500    0.717100    3.367100
H     -0.077100    2.118100    0.329600
H     -1.167700    1.500100   -0.912300
H     -1.509600    1.192400    0.794900
H     -0.589700   -0.832500   -0.351200
H      0.948100   -0.302400   -2.055600
H      1.714300    0.981800   -1.138500
H      3.109800   -1.374900   -0.985100
H      2.512400   -1.961100    1.463500
H      0.021100   -1.167300    1.876200
H      1.911000    1.268200    1.779000
