19
gdb_19586
C     -0.067300    1.627300    0.027900
C     -0.012900    0.101700    0.018300
C      0.690300   -0.596000   -1.185900
C      2.043600   -0.270700   -0.453300
C      1.156900   -0.583700    0.789700
N      1.023800   -2.071400    0.612800
C     -0.307200   -2.579500    0.234900
C      0.610400   -2.088200   -0.825300
H      0.885100    2.109400   -0.203000
H     -0.802300    1.984600   -0.702000
H     -0.386400    1.986100    1.012900
H     -1.019200   -0.249600    0.252400
H      0.495200   -0.312200   -2.220500
H      2.880800   -0.951100   -0.623700
H      2.370000    0.764500   -0.539300
H      1.433300   -0.309500    1.808100
H     -0.387400   -3.656000    0.364400
H     -1.212300   -2.047400    0.501900
H      1.115600   -2.798200   -1.476000
