12
gdb_21832
O     -0.316200    0.038500    0.002300
C     -0.092800    1.226300    0.008500
N      1.151300    1.804200    0.001500
C      2.365500    1.130600   -0.013600
N      3.473100    1.841400   -0.017700
O      4.501100    0.906400   -0.033200
C      3.970200   -0.323900   -0.037800
C      2.615200   -0.272300   -0.026000
H     -0.886800    1.995900    0.021000
H      1.212700    2.812300    0.008200
H      4.676900   -1.139200   -0.049800
H      1.892700   -1.066600   -0.025800
