16
gdb_2487
C     -0.072900    1.536800    0.021700
C     -0.025300    0.037100    0.007600
C      0.393000   -0.762200   -1.248900
C     -0.581600   -1.799500   -0.728800
C     -0.511800   -1.811300    0.763700
C      0.507700   -0.781600    1.206900
N     -1.366200   -0.790900    0.063800
H      0.940400    1.953400   -0.022000
H     -0.635600    1.918100   -0.836300
H     -0.553500    1.904000    0.934100
H      0.014900   -0.290400   -2.160200
H      1.449800   -1.022300   -1.375900
H     -1.085100   -2.582300   -1.285100
H     -0.961800   -2.603200    1.352200
H      1.571600   -1.042800    1.230800
H      0.216600   -0.324400    2.156900
