13
gdb_16602
N     -0.044100    1.262200   -0.359600
C      0.011000    0.053900   -0.009000
O      1.142500   -0.630300    0.344500
C      0.820400   -1.956600    0.744700
C      0.033900   -2.069600    1.999700
C     -0.665100   -2.170600    0.632900
C     -1.191100   -0.890100    0.076000
O     -2.303100   -0.636000   -0.297700
H      0.883100    1.692700   -0.342700
H      1.568600   -2.676300    0.439800
H      0.088200   -2.995700    2.560200
H     -0.109800   -1.175300    2.596800
H     -1.129400   -3.102800    0.342500
