17
gdb_12508
C     -0.380700    1.501500    0.087400
C      0.013100    0.050600    0.003500
N     -0.042700   -0.568000   -1.094500
C      0.149700   -1.980100   -1.327600
C      0.855900   -2.896300   -0.367100
C      1.421100   -2.606700    0.798900
C      1.473500   -1.255700    1.446300
O      0.343700   -0.404900    1.254700
H      0.472900    2.109600    0.406200
H     -0.743400    1.850200   -0.878400
H     -1.161000    1.628900    0.845100
H     -0.851600   -2.397700   -1.523400
H      0.660600   -2.078100   -2.298200
H      0.908600   -3.924500   -0.723900
H      1.928700   -3.394700    1.350800
H      1.545400   -1.368100    2.532400
H      2.377300   -0.716700    1.122400
