18
gdb_9765
C     -0.103700    1.632100   -0.002200
C     -0.027800    0.112200   -0.069900
C     -1.421400   -0.536900   -0.114500
O     -2.122600   -0.331500    1.093000
C      0.883600   -0.429800   -1.188200
O      1.497800   -1.566900   -0.599600
C      1.714200   -1.190500    0.734100
O      0.612000   -0.394100    1.129500
H      0.883600    2.060600    0.190400
H     -0.481600    2.038300   -0.946900
H     -0.785000    1.935100    0.795900
H     -2.022100   -0.090000   -0.914500
H     -1.300300   -1.609100   -0.335800
H     -1.514800   -0.606700    1.791400
H      0.335900   -0.756100   -2.075700
H      1.634900    0.318700   -1.482800
H      1.769300   -2.091200    1.353300
H      2.646700   -0.605900    0.832700
