19
gdb_14783
O     -0.013200    1.377600    0.143000
C     -0.009600   -0.039000    0.229100
C     -1.404300   -0.533000   -0.132200
C     -1.522700   -2.058900   -0.099000
C     -2.937400   -2.538200   -0.446900
N     -3.069900   -3.987100   -0.445500
C     -3.634900   -4.679100    0.579800
O     -4.122600   -4.185600    1.574600
H      0.857100    1.697300    0.397600
H      0.730800   -0.478600   -0.460100
H      0.251900   -0.377500    1.244900
H     -2.122900   -0.083300    0.563600
H     -1.657200   -0.153500   -1.130200
H     -0.804900   -2.503800   -0.802200
H     -1.261800   -2.439200    0.896100
H     -3.653700   -2.164100    0.288500
H     -3.234900   -2.154400   -1.430300
H     -2.657600   -4.514100   -1.198900
H     -3.609700   -5.772500    0.398000
