18
gdb_18870
C     -0.257500    1.583000   -0.010500
C      0.024100    0.091000   -0.128200
C      0.732800   -0.516000   -1.349400
C      2.247800   -0.417300   -1.239900
C      2.868800    0.568400   -0.262900
O      2.226900    0.314800    0.992700
C      1.140700   -0.571700    0.751900
C      1.523000   -1.464200   -0.453400
H     -0.928300    1.914300   -0.811200
H     -0.743600    1.811200    0.944500
H      0.654200    2.181400   -0.064700
H     -0.904500   -0.471500    0.029800
H      0.268300   -0.734600   -2.304900
H      2.812700   -0.710800   -2.117300
H      3.946800    0.391500   -0.151400
H      2.727000    1.616400   -0.556800
H      0.846600   -1.017600    1.701500
H      1.679600   -2.533000   -0.494100
