19
gdb_17617
C      0.004300    1.407700    0.030000
N     -0.044200   -0.045800    0.050000
C      0.279400   -0.672500    1.318900
C     -0.321300   -0.712200   -1.119300
O     -0.631600   -0.115000   -2.142900
C     -0.236200   -2.209500   -1.118700
C     -1.325800   -2.947600   -1.882500
C      0.047500   -2.859500   -2.460500
H      1.000500    1.766700    0.319300
H     -0.224700    1.742200   -0.979900
H     -0.727800    1.830300    0.729500
H     -0.085600   -0.034400    2.130200
H     -0.210900   -1.639800    1.424400
H      1.361400   -0.806300    1.461200
H      0.173400   -2.710000   -0.252800
H     -1.668100   -3.891600   -1.473800
H     -2.091200   -2.324400   -2.329100
H      0.192800   -2.174600   -3.286700
H      0.674800   -3.743500   -2.457600
