18
gdb_7464
C      0.039200    1.481400   -0.020300
C      0.019400    0.025600   -0.019900
C     -0.010000   -1.179400   -0.023300
C      0.004300   -2.639100   -0.035900
O      0.750400   -3.142000   -1.131000
C      0.313000   -3.254300    1.374900
C     -1.212400   -3.433700    1.589900
C     -1.409300   -3.284200    0.058800
H      0.751800    1.874500    0.713200
H      0.323400    1.872900   -1.003300
H     -0.947800    1.889700    0.223600
H      1.513000   -2.567600   -1.257700
H      0.821700   -4.211500    1.234000
H      0.871300   -2.639700    2.083500
H     -1.546800   -4.366300    2.047400
H     -1.647500   -2.596400    2.140700
H     -2.252100   -2.697500   -0.309500
H     -1.384000   -4.249800   -0.452800
