16
gdb_9718
C      0.142900    1.543100   -0.162300
C     -0.042200    0.028200   -0.071000
O      0.630300   -0.640500   -1.144000
C      1.572100   -1.590700   -0.645100
C      1.445800   -1.511100    0.849300
C      0.541500   -0.596500    1.178800
C     -1.529300   -0.354100   -0.150500
O     -2.433400    0.316800    0.270900
H      1.187900    1.809600    0.012600
H     -0.149700    1.893600   -1.155800
H     -0.490200    2.039900    0.576600
H      1.335700   -2.590900   -1.037800
H      2.585000   -1.337100   -0.994800
H      2.038700   -2.111000    1.528100
H      0.226800   -0.302900    2.171400
H     -1.689100   -1.347000   -0.627300
