20
gdb_13451
C     -0.080200    1.591200   -0.097700
C      0.184600    0.101000   -0.095000
C      1.589200   -0.430600    0.057700
O      2.612800    0.492600    0.257200
C      0.579700   -0.664400    1.161900
C      0.731700    0.002700    2.515800
C      1.761100   -0.679900    3.413000
O      3.064500   -0.453400    2.868200
H      0.724800    2.137100    0.397400
H     -0.135200    1.962000   -1.126800
H     -1.028100    1.837100    0.394000
H     -0.447600   -0.461200   -0.777900
H      1.870000   -1.290300   -0.552800
H      3.063500    0.230100    1.074800
H      0.188700   -1.678400    1.226900
H      1.019900    1.051800    2.407000
H     -0.231200   -0.004600    3.042200
H      1.704300   -0.267700    4.431100
H      1.553000   -1.758400    3.474800
H      3.694600   -1.034300    3.302900
