13
gdb_21543
N     -0.245400    1.474100   -0.060900
C     -0.039000    0.068100   -0.055400
C     -1.081600   -0.839700   -0.073700
O     -2.403900   -0.616900   -0.098600
N     -0.559500   -2.077900   -0.062700
N      0.818100   -2.053300   -0.037000
C      1.108200   -0.764700   -0.033100
O      2.382800   -0.319300   -0.010000
H      0.186200    1.915100   -0.867700
H      0.155300    1.917000    0.760600
H     -2.496700    0.348600   -0.101600
H     -1.045300   -2.956300   -0.069900
H      2.951400   -1.100000    0.001400
