14
gdb_151
C      0.181800    1.473600    0.073800
C     -0.191800    0.004000   -0.097000
N      0.499600   -0.578500   -1.243500
C      1.816600   -1.147800   -0.977800
C      0.644900   -2.028300   -1.243300
H      1.252500    1.584900    0.274100
H     -0.051300    2.036100   -0.834700
H     -0.366800    1.918000    0.909900
H      0.025300   -0.550400    0.835500
H     -1.269300   -0.090700   -0.278400
H      2.571100   -0.982500   -1.741600
H      2.188800   -1.116100    0.045700
H      0.240800   -2.583100   -0.397400
H      0.525700   -2.517700   -2.205900
