18
gdb_10642
C      0.049400    1.306300   -0.289500
O     -0.052200   -0.001600    0.248300
C     -1.322200   -0.571500    0.118200
C     -1.673300   -1.199900   -1.226000
C     -1.338100   -2.079000   -0.046800
C     -0.049600   -2.868200   -0.002200
C     -2.366200    0.059900    0.887400
C     -3.228600    0.600500    1.529200
H      1.082500    1.626900   -0.139100
H     -0.181300    1.318300   -1.364200
H     -0.625100    2.004400    0.222600
H     -2.697900   -1.140200   -1.574100
H     -0.915000   -1.096400   -1.995600
H     -2.187100   -2.561400    0.428400
H      0.776000   -2.295200   -0.428300
H      0.218400   -3.124700    1.027900
H     -0.153900   -3.801300   -0.566300
H     -3.989800    1.069900    2.101700
