14
gdb_791
C     -0.035600    1.444000    0.044000
C      0.019000   -0.008500    0.019200
C      0.084600   -1.213100   -0.002200
C      0.078500   -2.636100   -0.024500
C     -1.240300   -3.371100    0.012600
N      1.224300   -3.223800   -0.076600
O      1.068700   -4.612700   -0.092700
H      0.970000    1.877400    0.024400
H     -0.584900    1.835500   -0.819700
H     -0.538200    1.807100    0.947600
H     -1.341300   -4.007500   -0.872200
H     -1.277000   -4.033900    0.882800
H     -2.074500   -2.671200    0.053800
H      1.981600   -4.917400   -0.131700
