22
gdb_10854
C     -0.144100    1.572200    0.030900
C     -0.023100    0.040900    0.015100
C      0.629600   -0.466300   -1.281300
C      0.995100   -1.952300   -1.181800
C      2.001500   -2.224000   -0.045100
C      3.458800   -1.941900   -0.460000
C      1.628800   -1.446800    1.194500
C      0.732200   -0.461300    1.223300
H      0.845200    2.042300   -0.001200
H     -0.715800    1.929600   -0.832100
H     -0.650000    1.921500    0.937400
H     -1.046600   -0.365800    0.064200
H     -0.042300   -0.293500   -2.129900
H      1.533300    0.126100   -1.477400
H      0.080600   -2.529000   -0.993800
H      1.401300   -2.311900   -2.134200
H      1.947500   -3.293300    0.205500
H      3.588700   -0.900000   -0.770000
H      4.147500   -2.124400    0.371600
H      3.758900   -2.586600   -1.293200
H      2.144800   -1.727200    2.111400
H      0.513600    0.035100    2.167800
