17
gdb_20264
C     -0.047300    1.554200    0.068800
C      1.504000    1.418700    0.001500
C      1.796500    0.609200    1.269700
C      2.084900   -0.808100    0.918100
C      2.259100   -0.917000   -0.582900
C      1.281800    0.186400   -0.949200
C      0.029700    0.013600   -0.035900
N      0.690600   -0.394600    1.249900
H     -0.492800    1.980100    0.971200
H     -0.473100    2.016700   -0.825300
H      2.163700    2.249000   -0.248300
H      2.051700    1.068700    2.217800
H      2.552700   -1.498100    1.611500
H      3.287500   -0.710300   -0.898400
H      1.962300   -1.895900   -0.975500
H      1.100900    0.415500   -1.997200
H     -0.822800   -0.615500   -0.289900
