13
gdb_884
C     -0.000600    1.499900    0.063100
C      0.001100    0.016700   -0.036200
C     -0.065100   -0.803100   -1.092700
O     -0.030100   -2.126800   -0.677400
C      0.062100   -2.140900    0.700100
N      0.118900   -3.151100    1.463400
N      0.080300   -0.816400    1.083500
H      0.914900    1.871600    0.538500
H     -0.069400    1.944400   -0.932000
H     -0.849000    1.861700    0.656100
H     -0.136600   -0.627600   -2.151200
H      0.087500   -4.010700    0.922300
H      0.143800   -0.537400    2.045600
