18
gdb_12267
C      0.294500    1.428800    0.188700
C      0.032900   -0.070000    0.014500
C      0.518400   -0.588000   -1.332000
O      1.958300   -0.519600   -1.506800
C      2.103100   -1.935100   -1.789600
C      3.070900   -2.656500   -0.869300
C      0.597100   -2.106900   -1.537800
O     -0.164400   -3.023800   -1.474800
H      1.362200    1.644900    0.092400
H     -0.237500    2.013500   -0.569500
H     -0.037100    1.772200    1.172800
H      0.529000   -0.634100    0.812700
H     -1.039400   -0.288900    0.088300
H     -0.002600   -0.073900   -2.154400
H      2.370700   -2.100300   -2.843800
H      2.794900   -2.515200    0.179200
H      3.065200   -3.727800   -1.092500
H      4.086400   -2.276900   -1.014800
