15
gdb_13360
C      0.113000    1.560800   -0.105800
C      0.001600    0.111300   -0.047000
C     -0.101100   -1.087400   -0.001500
C     -0.182100   -2.535600    0.065300
C      0.589200   -3.184000    1.264600
N     -0.435700   -3.897600    2.038600
C     -1.528700   -3.702600    1.431200
O     -1.563100   -2.964300    0.296900
H      0.781200    1.941900    0.673800
H      0.504300    1.890700   -1.074200
H     -0.865500    2.032600    0.035300
H      0.118100   -2.975700   -0.891100
H      1.357800   -3.883200    0.921800
H      1.075100   -2.427500    1.886800
H     -2.495500   -4.086100    1.739000
