15
gdb_19798
O     -0.015900    1.395800   -0.081400
C      0.032600   -0.006900    0.042400
C     -1.363300   -0.658300    0.077700
N     -2.185600   -0.267200   -1.081600
C     -1.506600   -1.581200   -1.076200
C     -0.185200   -1.588800   -1.829600
O      0.177700   -0.332300   -2.405700
C      0.747800   -0.685400   -1.139800
H     -0.548400    1.556300   -0.872900
H      0.570100   -0.224000    0.971500
H     -1.847000   -0.830200    1.033600
H     -3.169400   -0.396300   -0.857200
H     -2.097400   -2.489500   -1.033700
H      0.122100   -2.471600   -2.383400
H      1.828500   -0.806600   -1.132900
