17
gdb_17985
N      0.089400   -1.159300    0.165200
C      0.035700   -0.007800    0.067300
C     -0.005300    1.442100   -0.026100
C     -0.377900    2.254500    1.263800
C      0.878200    3.149400    1.067200
C      2.111000    2.725500    1.901000
C      2.488900    1.681000    0.805000
C      1.347900    2.214800   -0.105200
H     -0.656600    1.718500   -0.859800
H     -1.339400    2.765200    1.190500
H     -0.368400    1.663300    2.182200
H      0.687700    4.215100    0.938500
H      2.852500    3.523200    1.991800
H      1.902200    2.337900    2.902300
H      3.487100    1.812100    0.383000
H      2.382100    0.632400    1.094200
H      1.634000    2.571100   -1.094700
