11
gdb_1032
O     -0.072100   -0.025900   -0.001000
C      0.019700    1.177900    0.007900
C      1.266400    1.945400    0.001000
C      1.355800    3.322800    0.011400
N      2.692800    3.600200   -0.000800
C      3.356000    2.397500   -0.017300
N      2.531700    1.386500   -0.016900
H     -0.887800    1.826600    0.022700
H      0.606000    4.097000    0.025700
H      3.111100    4.516200    0.002100
H      4.434700    2.341500   -0.029200
