18
gdb_17455
C     -0.162100    1.476800   -0.125000
N      0.095100    0.051100    0.024000
C      1.413500   -0.519800   -0.164400
C      2.548200    0.316300    0.412300
N      3.169800   -0.352500    1.561900
C      1.881000    0.323100    1.765800
C      1.787800    1.379100    2.828400
C      0.738200   -0.519000    1.194100
H      0.650300    2.129600    0.219500
H     -0.344700    1.686100   -1.183900
H     -1.071100    1.730000    0.429800
H      1.525200   -1.342800   -0.863500
H      3.109600    1.103900   -0.076500
H      3.066600   -1.364400    1.501900
H      2.724400    1.939000    2.889800
H      0.969500    2.078100    2.631200
H      1.607400    0.923900    3.809200
H      0.237800   -1.337900    1.702600
