16
gdb_20912
C      0.049600    1.564900   -0.054400
C      0.016200    0.038700    0.047000
N      0.675900   -0.463800    1.237000
N      2.040000   -0.593100    1.284500
C      2.228100   -1.082800    2.493400
N      1.103700   -1.263600    3.242100
C      0.150200   -0.858100    2.418800
N     -1.211700   -0.901500    2.673900
H      1.083500    1.918900   -0.050700
H     -0.429000    1.893400   -0.981900
H     -0.474500    2.033000    0.785200
H     -1.011400   -0.338200    0.061400
H      0.520800   -0.410900   -0.812200
H      3.216800   -1.318700    2.858800
H     -1.378300   -1.160300    3.637500
H     -1.712700   -0.054700    2.439400
