18
gdb_17618
C      0.179700    1.437700   -0.038400
N      0.099600   -0.011600    0.047900
C      0.386700   -0.584200    1.350100
C     -0.282300   -0.722600   -1.054500
O     -0.639600   -0.181200   -2.095100
C     -0.246200   -2.229200   -0.982700
C     -1.517000   -2.932700   -1.342100
N     -0.388700   -2.923300   -2.266500
H      1.171200    1.782600    0.279700
H      0.000400    1.732000   -1.070700
H     -0.570900    1.910300    0.608000
H      0.020900   -1.607000    1.421700
H      1.462200   -0.574300    1.574000
H     -0.121700    0.001800    2.124800
H      0.445100   -2.699600   -0.293200
H     -1.742900   -3.891300   -0.883300
H     -2.375400   -2.305300   -1.566500
H     -0.550000   -2.191500   -2.961000
