20
gdb_19183
C     -0.244900    1.536800    1.148300
C     -0.095900    0.086800    0.719200
C      0.935800   -0.352000   -0.386500
C      2.257300    0.090800    0.251700
C      2.130800   -0.299000    1.524800
C      0.742500   -0.947800    1.559600
C      0.830700   -1.804500    0.232200
C     -0.331900   -2.708700   -0.160100
H      0.719000    1.994000    1.384100
H     -0.717500    2.126900    0.354700
H     -0.884600    1.612400    2.035100
H     -1.087700   -0.317000    0.497000
H      0.771600   -0.156700   -1.447400
H      3.077800    0.588000   -0.245900
H      2.819700   -0.207600    2.352500
H      0.379400   -1.365200    2.500000
H      1.765100   -2.367600    0.152600
H     -1.309600   -2.223300   -0.108400
H     -0.197900   -3.072600   -1.185200
H     -0.364500   -3.587200    0.494500
