14
gdb_11881
O      0.047800   -0.001800    0.188200
C     -0.037200    1.188100    0.140600
C     -1.297700    2.048400    0.089700
C     -0.781900    3.447100    0.340300
C     -1.566400    4.680400    0.322500
O     -1.153700    4.088500    1.560100
C      0.706100    3.382000    0.019800
O      1.062700    1.996200    0.111400
H     -1.750700    1.939000   -0.901600
H     -2.023300    1.722200    0.835800
H     -1.085800    5.626400    0.073600
H     -2.634400    4.636600    0.113500
H      0.930600    3.736100   -0.993200
H      1.295300    3.949500    0.743600
