20
gdb_13902
C     -0.248200    1.252900   -1.381800
C     -0.033000   -0.051800   -0.646600
C      1.315500   -0.615100   -0.334100
C      2.615800    0.056500   -0.718000
C      0.429900   -0.112600    0.820000
C      0.759900    1.110400    1.601200
C      0.393600    1.052500    3.076400
O      1.284100    2.102200    1.128700
H      0.451700    2.024000   -1.061600
H     -0.135900    1.099800   -2.461000
H     -1.261700    1.629000   -1.205600
H     -0.795000   -0.797000   -0.863700
H      1.369300   -1.701200   -0.362100
H      2.579700    1.135000   -0.568300
H      3.441900   -0.336100   -0.115500
H      2.848300   -0.146800   -1.769400
H     -0.034000   -0.892900    1.415100
H      0.905900    0.214700    3.563500
H      0.671500    1.987600    3.563600
H     -0.682100    0.878300    3.195200
