13
gdb_881
C      0.076800    1.477700    0.033400
C     -0.071800    0.005800   -0.027600
C     -1.109200   -0.818000   -0.218400
N     -0.614400   -2.121600   -0.168900
C      0.743800   -2.096900    0.054500
N      1.516200   -3.096900    0.156300
O      1.080300   -0.758200    0.143000
H      0.763200    1.842600   -0.739500
H     -0.893900    1.956700   -0.114800
H      0.475900    1.799500    1.002300
H     -2.150100   -0.600300   -0.384100
H     -1.127200   -2.976900   -0.275800
H      2.472700   -2.795900    0.320700
