16
gdb_8345
N     -0.048600   -1.156900    0.037500
C     -0.047000   -0.001400    0.018300
C     -0.001000    1.459000   -0.005400
C      1.429300    1.990900    0.002000
C      2.566000    1.767000   -1.020500
N      3.233400    2.695200    0.010900
C      1.900400    3.462500   -0.017600
C      2.542000    1.802300    1.057500
H     -0.528200    1.815200   -0.898400
H     -0.548200    1.844400    0.863100
H      3.019700    0.774700   -1.074900
H      2.464200    2.218100   -2.011300
H      1.748500    4.040600   -0.933300
H      1.727700    4.071400    0.874200
H      2.417600    2.286900    2.029800
H      2.994000    0.812600    1.156100
