14
gdb_3585
C      0.103700    1.545900    0.086300
C      1.276000    0.638300   -0.027300
C      1.997600    0.294500    1.253200
O      1.428800    0.885400    2.430900
C      1.067600   -0.463200    2.105400
C     -0.248400   -0.590500    1.353100
N     -0.100700    0.093000    0.046700
H     -0.017500    2.067000    1.030400
H     -0.260900    2.070700   -0.792800
H      1.814300    0.509000   -0.961800
H      3.075400    0.161900    1.263300
H      1.377000   -1.219300    2.824600
H     -0.456800   -1.649600    1.161700
H     -1.092500   -0.177400    1.915000
