17
gdb_13186
C      0.133400    1.477300   -0.052500
N     -0.014600    0.032400    0.050500
C     -0.113500   -0.547100    1.284500
O     -0.088000    0.044800    2.344000
C     -0.056900   -0.759400   -1.162300
C      0.863300   -2.005200   -1.272400
O     -0.270700   -2.890900   -1.346300
C     -1.202800   -1.792200   -1.339600
H      1.069900    1.741900   -0.556700
H     -0.700700    1.919800   -0.609100
H      0.143800    1.880200    0.959900
H     -0.222600   -1.645700    1.220800
H      0.041600   -0.068700   -1.999300
H      1.479600   -2.048500   -2.179200
H      1.493800   -2.202000   -0.398100
H     -1.914900   -1.850600   -0.508800
H     -1.755500   -1.715100   -2.284300
