15
gdb_8510
O      0.190100    1.304800    0.088900
C      0.109400   -0.062700    0.087100
C      0.710600   -0.986900    1.151800
C      0.018300   -1.940100    0.141600
O     -0.140500   -3.307200    0.188400
C     -1.163900   -0.960300   -0.123100
N     -1.004600   -0.908200   -1.614300
C      0.398800   -1.045900   -1.101200
H     -0.281000    1.617800   -0.694300
H      1.803400   -1.023800    1.201900
H      0.271500   -0.930400    2.151800
H      0.730300   -3.719200    0.202500
H     -2.124600   -0.908100    0.390500
H     -1.316400   -1.788800   -2.031200
H      1.280100   -1.093500   -1.743300
