14
gdb_3111
C      0.022100   -1.211900    0.042400
C      0.042200   -0.009300    0.023800
C      0.036400    1.414000   -0.052600
C     -0.716900    2.252900   -1.108700
C      0.451000    3.292500   -1.084800
C      1.160600    2.435400   -0.029800
N      0.326900    2.218000    1.139100
H      0.012100   -2.273100    0.074700
H     -0.800100    1.744200   -2.070600
H     -1.710300    2.596500   -0.802900
H      0.983700    3.335800   -2.037200
H      0.209300    4.313500   -0.771600
H      2.227600    2.275100    0.072900
H     -0.361800    2.956500    1.279800
