16
gdb_2263
C     -0.063900    1.529300    0.045300
C      0.149800    0.049800   -0.014200
N     -0.790200   -0.913900    0.618700
C      0.658200   -0.944700    0.971600
C      1.323100   -1.788800   -0.112800
C      0.746400   -0.774100   -1.177200
O     -0.162500   -1.247400   -2.129400
H      0.845800    2.069100   -0.238700
H     -0.861400    1.837500   -0.640600
H     -0.343500    1.851200    1.054800
H     -1.279700   -0.414700    1.360700
H      0.971900   -0.796600    1.998100
H      2.414900   -1.778600   -0.072500
H      0.963300   -2.817000   -0.201900
H      1.537200   -0.245900   -1.716000
H     -0.915600   -1.572400   -1.615900
