17
gdb_12793
C     -0.201500    1.526400    0.056700
C      0.043400    0.034700   -0.003400
C     -0.711000   -0.875400    0.930300
C      0.783100   -0.658700    1.118100
N      1.674500   -1.740800    0.826500
C      1.642400   -2.226200   -0.341000
O      0.887500   -1.832100   -1.398400
C      0.402600   -0.479600   -1.382800
H      0.664900    2.088800   -0.310500
H     -1.069500    1.814600   -0.548900
H     -0.396400    1.847200    1.084300
H     -1.386300   -0.420500    1.647300
H     -1.018500   -1.853500    0.575600
H      1.093300   -0.068000    1.974100
H      2.248200   -3.089400   -0.607900
H     -0.457200   -0.471200   -2.060800
H      1.181200    0.164900   -1.814600
