19
gdb_6128
C      0.002200    1.449000    0.071700
N     -0.002100    0.010400    0.050700
C     -1.084900   -0.973400    0.046600
C      0.013600   -2.091600    0.019800
C      0.091200   -2.957500    1.275500
C      0.067000   -2.920800   -1.261600
C      1.018100   -0.905400    0.027600
O      2.217400   -0.783500    0.017900
H      1.044800    1.776300    0.066500
H     -0.504100    1.867900   -0.807000
H     -0.486900    1.841900    0.971900
H     -1.709800   -0.952100    0.947500
H     -1.726700   -0.926000   -0.841400
H     -0.724300   -3.688900    1.299400
H      1.038500   -3.504900    1.299600
H      0.032600   -2.351600    2.185300
H     -0.008800   -2.288900   -2.152300
H      1.013700   -3.466900   -1.319500
H     -0.748900   -3.651500   -1.291100
