17
gdb_6447
C     -0.024800    1.526700    0.051200
N     -0.012200    0.084100    0.107700
C     -1.246900   -0.616500    0.499400
C     -0.396700   -1.628000    1.316900
O     -0.196700   -2.794800    0.539700
C      0.749400   -0.571000    1.183200
C     -0.829900   -1.950300    2.668800
C     -1.155500   -2.245400    3.788300
H      0.980300    1.897900   -0.175500
H     -0.692300    1.861000   -0.750100
H     -0.359700    1.999000    0.995600
H     -1.913800   -0.024700    1.144400
H     -1.817000   -1.056900   -0.324300
H      0.346300   -3.401500    1.055100
H      1.727600   -0.966300    0.887600
H      0.854100    0.038700    2.094300
H     -1.455600   -2.499800    4.774900
