18
gdb_20814
C     -0.193900    1.496400    0.024800
C      0.058700   -0.022800    0.026600
C      0.789600   -0.513400   -1.185500
C      2.138200   -0.747900   -1.390200
C      2.237100   -1.162400   -2.731200
N      1.049200   -1.190000   -3.327300
N      0.178100   -0.790600   -2.372200
C     -1.230500   -0.714300   -2.696100
H      0.750500    2.044500   -0.038700
H     -0.810500    1.800100   -0.827000
H     -0.709600    1.804500    0.939600
H      0.650600   -0.288200    0.908400
H     -0.896900   -0.551200    0.131500
H      2.927000   -0.638300   -0.662800
H      3.118800   -1.447400   -3.286700
H     -1.828400   -1.296100   -1.987800
H     -1.589100    0.320500   -2.693400
H     -1.351300   -1.131500   -3.695000
