16
gdb_20942
C      0.038500    1.486000    0.046000
C     -0.096100   -0.025600   -0.102600
N      0.765600   -0.513400   -1.169300
C      0.857500   -1.860100   -1.410500
N      0.486200   -2.788400   -0.533900
N      0.823500   -3.935800   -1.198600
C      1.346200   -3.644700   -2.399300
N      1.387600   -2.339300   -2.580600
H      1.073200    1.766200    0.264200
H     -0.267300    2.003800   -0.870800
H     -0.598500    1.848200    0.857600
H      0.204100   -0.527400    0.822500
H     -1.149500   -0.300000   -0.274400
H      0.771300    0.033700   -2.017700
H      0.654600   -4.829000   -0.769100
H      1.678800   -4.396600   -3.099500
