14
gdb_4875
O      0.087200    1.350100   -0.319100
C     -0.018600    0.059100    0.277700
C     -1.384400   -0.525500    0.123000
N     -1.689400   -1.757700   -0.201300
C     -3.070600   -1.827400   -0.194700
C     -3.588700   -0.600900    0.131400
O     -4.834500   -0.089200    0.267100
N     -2.518000    0.225700    0.339800
H     -0.063900    1.241700   -1.264500
H      0.705100   -0.660500   -0.124700
H      0.226900    0.219900    1.334500
H     -3.600200   -2.738100   -0.428600
H     -5.471800   -0.783100    0.071800
H     -2.554400    1.210900    0.543900
