14
gdb_20311
C     -0.238600   -0.864700   -1.003200
C     -0.081100    0.071900   -0.266800
C      0.142200    1.215400    0.613000
C      1.468300    1.895100    0.385100
C      2.053700    2.989800    0.993300
C      3.296200    3.136000    0.342100
N      3.479000    2.211600   -0.597400
N      2.354300    1.473600   -0.548200
H     -0.402100   -1.696800   -1.642900
H     -0.670000    1.941200    0.476000
H      0.073800    0.886400    1.658200
H      1.640700    3.589700    1.788400
H      4.062800    3.876100    0.520000
H      2.233600    0.690700   -1.170800
