15
gdb_11012
C      0.035200    1.517300   -0.049500
C     -0.070600    0.029200    0.122400
C     -1.367500   -0.700900   -0.232000
N     -1.300300   -1.907500    0.574200
C     -0.231300   -1.998500    1.428800
O     -0.023800   -2.872300    2.240100
C      0.618200   -0.773900    1.144300
O      1.075400   -0.753500   -0.223500
H      1.026900    1.862100    0.251700
H     -0.118800    1.797300   -1.097500
H     -0.717100    2.035600    0.553300
H     -2.241100   -0.087900    0.026900
H     -1.408000   -0.922200   -1.305600
H     -1.953500   -2.669300    0.489700
H      1.301900   -0.391800    1.894400
