14
gdb_2314
C      0.057500    1.529100   -0.186700
C     -0.032400    0.052000    0.099800
O      1.179000   -0.714200    0.048400
C      0.501000   -0.619600    1.296400
C      1.216600    0.115100    2.420000
C      2.163400   -0.749700    3.125000
N      2.899400   -1.441200    3.685600
H      0.910700    1.997200    0.308300
H      0.166500    1.692300   -1.263500
H     -0.858000    2.035800    0.136900
H     -0.875600   -0.445200   -0.384200
H      0.020000   -1.544600    1.617500
H      1.757000    0.980000    2.027700
H      0.480900    0.484900    3.144700
