9
gdb_23875
F      0.043300    0.074600   -0.065600
C     -0.021100    1.392800    0.017300
F      1.220200    1.892600    0.010300
F     -0.666800    1.867300   -1.054400
C     -0.757700    1.832400    1.312500
O     -1.184400    1.017800    2.089000
C     -0.867900    3.260200    1.473000
C     -0.960900    4.451800    1.608800
H     -1.044200    5.505300    1.730700
