13
gdb_3237
O     -0.213600    1.417200   -0.014500
C     -0.085800    0.043900    0.000400
C     -0.251200   -0.850100   -1.196000
C     -1.199200   -0.979600   -0.014900
C     -0.509400   -1.704500    1.184100
O      0.831100   -2.079300    0.820700
C      0.568500   -0.724900    1.210000
H      0.544100    1.786100   -0.483100
H     -0.699200   -0.347700   -2.047900
H      0.459900   -1.633400   -1.426900
H     -2.265900   -0.824200   -0.099100
H     -0.990000   -2.268600    1.973800
H      1.144900   -0.294400    2.020800
