15
gdb_7133
O     -0.247800    1.457000    0.012200
C      0.003000    0.061900    0.002200
C     -1.355400   -0.626100    0.011700
C     -1.241100   -2.126500    0.002100
O     -0.220500   -2.760500   -0.011800
O     -2.493800   -2.691400    0.011500
C     -2.586100   -4.061900    0.004600
N     -3.734900   -4.572900    0.013500
H      0.598100    1.913900    0.007500
H      0.567400   -0.247200   -0.889300
H      0.584600   -0.256800    0.879200
H     -1.933500   -0.323100    0.892000
H     -1.950600   -0.313200   -0.853700
H     -1.613100   -4.553000   -0.008000
H     -3.659500   -5.589200    0.007200
