17
gdb_18505
O     -0.116800   -0.075200    0.152500
C     -0.054400    1.133900    0.080500
N      1.088300    1.855800   -0.077800
C      2.404000    1.261000   -0.152400
C      3.226700    1.335000   -1.490800
C      4.380800    1.973900   -0.709300
C      3.917800    3.263600   -0.102200
C      3.545400    1.969300    0.576300
H     -0.947400    1.788500    0.139800
H      1.012000    2.860500   -0.109100
H      2.286900    0.225300    0.165500
H      3.443500    0.344100   -1.894100
H      2.796000    1.952900   -2.285500
H      5.429300    1.733500   -0.826400
H      4.673700    3.842800    0.417900
H      3.177800    3.875600   -0.615800
H      3.851300    1.762000    1.594800
