16
gdb_11729
C      0.173800    1.500100    0.180600
C     -0.105600    0.006400   -0.039300
C      0.486300   -0.502900   -1.316300
C      0.073000   -0.186500   -2.770000
C      0.547000   -1.632200   -3.113400
O      0.432400   -2.332600   -4.073600
C      0.994500   -1.859100   -1.674300
O      1.888600   -0.759800   -1.381500
H      1.250100    1.691100    0.218900
H     -0.248500    2.106300   -0.627400
H     -0.267300    1.840900    1.121300
H      0.306800   -0.578700    0.789700
H     -1.187200   -0.174700   -0.056200
H     -1.004200   -0.091400   -2.938900
H      0.602800    0.643300   -3.241400
H      1.109400   -2.767400   -1.094100
