16
gdb_7761
O     -0.145600    1.459700   -0.015500
C      0.063700    0.049400   -0.043900
C     -1.317900   -0.593500    0.131800
C     -1.310800   -2.075000   -0.200600
O     -1.751300   -2.916600    0.544900
C     -0.724200   -2.430100   -1.563800
C      0.366300   -1.489400   -2.003700
C      0.718100   -0.397100   -1.328700
H      0.714900    1.891000    0.004700
H      0.703300   -0.243900    0.806100
H     -1.703700   -0.446300    1.141700
H     -1.989600   -0.088300   -0.575400
H     -0.376200   -3.468400   -1.527500
H     -1.548500   -2.419600   -2.294000
H      0.892300   -1.753100   -2.917900
H      1.531000    0.228700   -1.691700
