18
gdb_17076
C     -0.102300    1.580800    0.151100
C     -0.122500    0.081100    0.324700
C     -1.277900   -0.737000   -0.059200
O     -0.110100   -0.694800   -0.880500
C      1.294800    2.093100   -0.165900
C      1.542300    3.617000   -0.119100
C      2.586500    3.269500    0.960400
O      2.217300    1.875100    0.933400
H     -0.782500    1.861300   -0.662600
H     -0.457900    2.060900    1.071900
H      0.541700   -0.299600    1.100700
H     -1.464500   -1.685500    0.442700
H     -2.160900   -0.253700   -0.476800
H      1.665200    1.608800   -1.079400
H      1.924100    4.071600   -1.034100
H      0.688900    4.195900    0.241400
H      3.631600    3.419600    0.660700
H      2.436900    3.715100    1.950800
