13
gdb_4277
N     -0.002800    1.347300    0.122000
C      0.044200   -0.007100    0.042700
N     -1.120000   -0.691200    0.033300
H     -2.019300   -0.233800    0.086900
C     -1.157400   -2.107100   -0.007300
N     -2.310300   -2.649500   -0.011600
N      0.078000   -2.733600   -0.035200
C      1.132800   -1.971500   -0.019300
N      1.213100   -0.610700    0.012300
H      0.877200    1.812600   -0.032600
H     -0.837100    1.843800   -0.142500
H     -2.191100   -3.660700   -0.039800
H      2.097900   -2.476100   -0.038800
