19
gdb_13236
N     -0.149400   -1.153600   -0.151600
C     -0.107900   -0.002300   -0.058800
C     -0.030500    1.452200    0.053800
C      1.397700    1.994300   -0.165200
C      1.460400    3.508900   -0.028200
C      1.250000    4.159800    1.371700
C      2.373500    5.173600    1.024300
C      2.849100    4.205400   -0.092000
H     -0.718900    1.893900   -0.676500
H     -0.396700    1.743200    1.045200
H      2.072400    1.527300    0.562000
H      1.748200    1.690200   -1.158400
H      0.781800    3.972700   -0.755200
H      0.260300    4.555500    1.613200
H      1.557500    3.479500    2.173700
H      1.967300    6.100800    0.610400
H      3.085600    5.429300    1.811600
H      3.641600    3.538600    0.263900
H      3.160100    4.633200   -1.048000
