16
gdb_11384
C     -0.021500    1.558200   -0.058200
C     -0.002200    0.031300    0.042300
C     -1.406700   -0.581900    0.040200
O     -2.086300   -0.265900   -1.182000
C     -2.480900   -1.417700   -1.822100
O     -3.064400   -1.407300   -2.868000
C     -2.047500   -2.560200   -0.979800
C     -1.432600   -2.083900    0.100100
H      0.995800    1.959500   -0.071300
H     -0.528700    1.878000   -0.971800
H     -0.546900    2.004400    0.793400
H      0.561300   -0.401300   -0.792300
H      0.500800   -0.284200    0.965000
H     -1.992400   -0.148200    0.864500
H     -2.235600   -3.585100   -1.263400
H     -0.993900   -2.642300    0.917300
