16
gdb_8659
C     -0.064800    1.477000    0.137000
N      0.111000    0.029700    0.007900
C      0.649700   -0.465900   -1.265900
C      2.142400   -0.194300   -1.516600
C      0.357200   -1.992000   -1.190300
O      1.214800   -2.821700   -1.081200
C     -0.162700    0.061800   -2.374200
N     -0.789600    0.444900   -3.266200
H      0.855400    2.064000   -0.006400
H     -0.806400    1.820800   -0.588600
H     -0.451700    1.686400    1.137500
H      0.710300   -0.317500    0.749800
H      2.730100   -0.696100   -0.744500
H      2.455000   -0.588300   -2.486700
H      2.348100    0.877800   -1.494300
H     -0.724300   -2.229600   -1.174700
