14
gdb_20676
C      0.072800    1.491800    0.049300
C     -0.002100   -0.003300    0.022400
C     -0.095700   -0.708900   -1.118500
O     -0.167000   -2.058200   -1.214700
N     -0.145800   -2.831500   -0.064400
C     -0.057300   -2.205400    1.054200
C      0.025000   -0.755900    1.267700
N      0.112600   -0.176100    2.412700
H      0.992300    1.817900    0.546200
H      0.041500    1.914700   -0.958100
H     -0.754200    1.903800    0.636600
H     -0.125100   -0.268400   -2.108900
H     -0.045300   -2.866500    1.919400
H      0.117500   -0.865800    3.167700
