11
gdb_2260
O     -0.104400    1.461300    0.000600
C     -0.020200    0.096500    0.032100
C     -0.266400   -0.813200   -1.188200
C     -1.103900   -0.946600    0.035800
O     -0.375600   -1.750200    1.006100
C      0.596800   -0.757900    1.127800
O      1.501000   -0.715400    1.892700
H      0.654300    1.808600   -0.482100
H     -0.722300   -0.275300   -2.015000
H      0.426800   -1.603900   -1.456700
H     -2.176000   -0.876500    0.144000
