17
gdb_1963
C      0.088600    1.481500   -0.178400
C     -0.008700   -0.029900    0.048500
C     -1.444400   -0.535600    0.133700
C     -2.295600   -0.515300   -1.179500
C     -2.678000   -1.976100   -0.893400
O     -3.505400   -2.718500   -1.335700
C     -1.653200   -2.080100    0.247000
H      1.131200    1.807500   -0.241600
H     -0.409300    1.777000   -1.108300
H     -0.384800    2.035100    0.640100
H      0.507600   -0.559900   -0.764000
H      0.521000   -0.298300    0.971700
H     -1.974300   -0.016600    0.939200
H     -3.125100    0.192000   -1.257100
H     -1.683800   -0.431200   -2.085900
H     -0.770200   -2.655600   -0.055800
H     -2.023600   -2.488000    1.190900
