10
gdb_3886
N      0.102100    1.323300    0.151100
C     -0.042400   -0.023500    0.033900
N     -1.143400   -0.686400   -0.043900
O     -0.695300   -2.054400   -0.043000
C      0.659700   -2.075600    0.001900
N      1.459100   -3.039600   -0.002000
O      1.088200   -0.763400    0.059500
H      0.955300    1.699400   -0.235100
H     -0.728500    1.853400   -0.066900
H      0.959800   -3.924000   -0.050300
