19
gdb_14975
C     -0.022300    1.566900   -0.100200
C     -0.004800    0.038700    0.020500
C      0.708200   -0.499500    1.268800
C     -0.032500   -0.162600    2.561400
O      0.624800   -0.718200    3.710400
C      1.189200   -1.937700    3.534500
N      1.330700   -2.614900    2.477200
C      0.880800   -2.024600    1.219600
H      0.994400    1.974900   -0.091500
H     -0.496900    1.878300   -1.035600
H     -0.575800    2.039000    0.717900
H     -1.034000   -0.345700    0.002300
H      0.488600   -0.384800   -0.863400
H      1.706900   -0.044900    1.331200
H     -0.084600    0.911900    2.748500
H     -1.058900   -0.554800    2.524000
H      1.550500   -2.314100    4.490100
H     -0.066100   -2.502200    0.927800
H      1.605200   -2.296200    0.442700
