18
gdb_12662
C      0.055400    1.588700    0.044300
C     -0.009400    0.052500   -0.042200
C      0.733700   -0.540900   -1.254100
O      0.618700    0.311700   -2.377300
C      2.181400   -0.754900   -0.758300
C      2.006700   -1.237600    0.687800
C      0.714200   -0.562400    1.166200
O      0.334900   -0.504100    2.307200
H      1.086700    1.955000    0.046300
H     -0.455000    2.037200   -0.809700
H     -0.423900    1.918600    0.969400
H     -1.060500   -0.250300   -0.019000
H      0.294600   -1.526900   -1.480400
H      1.096700   -0.090900   -3.109200
H      2.740100   -1.453500   -1.388300
H      2.704600    0.207200   -0.785100
H      1.845800   -2.322900    0.734500
H      2.838800   -1.012500    1.358700
