15
gdb_15925
N      0.059000   -1.150300   -0.255100
C      0.028200   -0.001900   -0.117500
C     -0.006200    1.428300    0.046100
C     -0.527800    2.302200   -1.141800
C      0.765500    3.171600   -1.081600
C      1.253600    2.365700    0.137900
O      0.794800    2.907100    1.387300
C     -0.329700    2.006300    1.443800
H     -0.638400    1.738200   -2.068400
H     -1.468800    2.814300   -0.929500
H      1.402400    3.050000   -1.961100
H      0.633500    4.235400   -0.877400
H      2.287400    2.016300    0.181300
H     -1.289200    2.528900    1.532700
H     -0.226500    1.282000    2.259500
