9
gdb_23831
F      0.041400    0.078300    0.002700
C     -0.021900    1.391700    0.011100
N     -1.160400    1.956800    0.029200
C     -1.182500    3.346400    0.037300
O     -2.154900    4.028300    0.053900
O      0.070900    4.023300    0.024600
N      1.269600    3.376500    0.005200
C      1.239300    2.089600   -0.001600
H      2.190000    1.570800   -0.017100
