16
gdb_12933
O      0.067600    1.308200   -0.316900
C      0.063800   -0.008700    0.215000
C     -1.316200   -0.625800    0.178200
C     -1.918700   -1.246400   -1.065100
O     -0.913300   -1.923500   -1.832100
C     -0.670700   -2.857700   -0.746300
C     -1.636500   -2.097200    0.162700
O     -2.418800   -2.653700    1.149300
H     -0.185600    1.238900   -1.243500
H      0.781300   -0.649900   -0.313500
H      0.404800    0.086400    1.250900
H     -2.067300   -0.082000    0.748500
H     -2.815800   -0.915700   -1.575100
H     -1.041100   -3.856900   -1.012300
H      0.385400   -2.921500   -0.463200
H     -2.930900   -3.375300    0.765300
