16
gdb_8475
C      0.020100    1.563700   -0.003400
C     -0.042400    0.066300    0.072500
C      1.159700   -0.826900   -0.288700
C      0.577300   -1.009100    1.056800
O      1.235700   -0.839300    2.252000
C     -0.686500   -1.863200    0.986100
C     -1.280100   -0.769400    0.056600
O     -2.394700   -0.567800   -0.342400
H      0.945400    1.939700    0.446800
H     -0.013500    1.916300   -1.040000
H     -0.822400    2.014400    0.529300
H      1.092600   -1.594700   -1.056900
H      2.085600   -0.255100   -0.324900
H      2.158900   -0.631600    2.079400
H     -0.589900   -2.884500    0.604500
H     -1.234800   -1.877200    1.932700
