14
gdb_12409
O      0.450900    0.600800    0.877100
C     -0.117600   -0.256000   -0.068200
C     -1.617200    0.059900   -0.276200
O     -2.064000   -0.314000   -1.582900
C     -1.278500   -1.283200   -2.176900
O      0.055400   -0.794100   -2.431900
C      0.631500   -0.165600   -1.394600
O      1.677700    0.420200   -1.498900
H      1.261900    0.938400    0.463500
H     -0.020600   -1.305000    0.262600
H     -2.225000   -0.442900    0.485600
H     -1.756900    1.139300   -0.182900
H     -1.205300   -2.201400   -1.574200
H     -1.698100   -1.506900   -3.157400
