20
gdb_15043
C     -0.117000    1.524800   -0.047400
C     -0.033800    0.000400   -0.137800
C      0.864600   -0.510200   -1.290300
C      2.248900   -0.058600   -1.132700
C      3.387800    0.296100   -0.979800
C      0.803800   -2.029500   -1.411300
C     -0.325500   -2.679700   -2.168700
C      1.077600   -2.704700   -2.726900
H      0.872800    1.962900    0.109900
H     -0.530300    1.954400   -0.967100
H     -0.761100    1.832800    0.781900
H      0.344800   -0.409700    0.806100
H     -1.033300   -0.424000   -0.287000
H      0.476000   -0.086000   -2.228600
H      4.394200    0.611900   -0.858300
H      1.153500   -2.548600   -0.523000
H     -0.746100   -3.600500   -1.780100
H     -1.050600   -2.033300   -2.653500
H      1.293500   -2.073500   -3.582800
H      1.620300   -3.643200   -2.721900
