13
gdb_1118
N      0.416500    0.555400   -0.465100
C     -0.519700    0.428100    0.508400
O     -0.979100    1.350000    1.152800
C     -0.925100   -1.027000    0.814700
C     -1.159200   -1.908100   -0.407800
N     -2.302900   -2.638500   -0.384900
O     -0.367900   -1.974000   -1.337600
H      0.649800    1.488800   -0.763400
H      0.582200   -0.234000   -1.078300
H     -0.101400   -1.484100    1.376800
H     -1.793000   -0.980100    1.473300
H     -2.978000   -2.560800    0.354500
H     -2.504400   -3.236700   -1.169900
