18
gdb_14270
C      0.011300    1.506300    0.441600
C      1.468500    1.463100   -0.062600
C      2.523700    1.235900    1.009600
C      2.250900    0.124300    1.990700
C      1.282300   -0.794700    1.995800
C      0.152400   -1.013800    1.022200
C     -0.025000    0.046200   -0.054700
O      1.200200    0.246100   -0.805300
H     -0.149000    1.681100    1.506700
H     -0.623400    2.171900   -0.145600
H      1.776500    2.273200   -0.733100
H      3.486000    1.038100    0.514500
H      2.668600    2.177200    1.561200
H      2.977700    0.073300    2.800200
H      1.299500   -1.518900    2.809100
H      0.296500   -1.987800    0.531400
H     -0.792100   -1.106100    1.579600
H     -0.853900   -0.222300   -0.719200
