17
gdb_13383
O     -0.173700    1.471900   -0.052200
C      0.030500    0.066100   -0.062500
C     -1.340600   -0.577600    0.094000
C     -1.291000   -2.069800    0.101500
N     -0.253100   -2.794500   -0.006500
C     -0.705000   -4.191900    0.055400
C     -2.244600   -4.098400    0.223900
O     -2.503500   -2.677900    0.240100
H      0.682700    1.897300   -0.150300
H      0.493300   -0.273200   -0.999600
H      0.686700   -0.258000    0.757200
H     -1.810500   -0.232200    1.022400
H     -2.001800   -0.247300   -0.715800
H     -0.414500   -4.720600   -0.858700
H     -0.221800   -4.705500    0.893400
H     -2.804100   -4.540800   -0.605300
H     -2.609600   -4.525500    1.162400
