15
gdb_12976
C     -0.019600    1.524200    0.006400
C      0.027200    0.018700   -0.007700
C      0.331300   -0.767100    1.234000
N      1.316400   -0.679300    0.130300
C      1.218700   -1.807600   -0.732600
C      0.109700   -1.841600   -1.489600
C     -0.748700   -0.701100   -1.104300
O     -1.808500   -0.346700   -1.570800
H      0.566500    1.934200    0.832200
H      0.370500    1.931600   -0.931100
H     -1.058600    1.850700    0.106500
H      0.589400   -0.219000    2.136000
H     -0.154700   -1.726700    1.385400
H      2.020200   -2.535900   -0.688500
H     -0.157200   -2.581200   -2.230700
