12
gdb_21692
N      0.053900    1.337400   -0.036500
C     -0.017800   -0.007000    0.016500
N     -1.181000   -0.587000    0.084000
O     -1.133800   -2.000000    0.178900
C      0.038400   -2.622500    0.189100
N      1.212300   -2.115400    0.108700
C      1.279100   -0.732200   -0.000500
N      2.349300   -0.046600   -0.119400
H      0.964900    1.726000   -0.223900
H     -0.781200    1.883500   -0.159100
H     -0.108600   -3.696800    0.277900
H      3.159200   -0.668900   -0.123100
