18
gdb_1900
C     -0.073100    1.562500   -0.087500
C      0.114400    0.059400   -0.004200
N      1.332500   -0.576900   -0.719200
C      2.142000   -0.137200    0.513700
C      0.841900   -0.667000    1.168300
C      0.463200   -0.740700    2.627100
C      0.997200   -1.810000    0.136000
H     -0.239900    1.857500   -1.128900
H     -0.959800    1.854900    0.485600
H      0.772200    2.140100    0.292600
H     -0.810900   -0.432600   -0.329800
H      3.055100   -0.722600    0.657600
H      2.365400    0.929800    0.551600
H      0.428300    0.257500    3.077300
H     -0.523000   -1.200800    2.754400
H      1.186900   -1.337600    3.193000
H      0.096000   -2.338200   -0.190900
H      1.840700   -2.496400    0.253400
