14
gdb_23885
N     -0.078700    1.455100    0.001200
C      0.009100    0.000800   -0.035900
C      0.660800   -0.568700   -1.306000
O     -0.100700   -0.065400   -2.392700
C      0.744800   -0.476200    1.210600
F      0.105300   -0.146200    2.332000
F      0.893600   -1.812600    1.205000
F      1.980600    0.060800    1.274100
H      0.859600    1.847600   -0.008400
H     -0.526100    1.759700   -0.858100
H     -1.007500   -0.403800    0.032100
H      1.709100   -0.235800   -1.356600
H      0.651300   -1.666600   -1.279000
H      0.309200   -0.355500   -3.212100
