11
gdb_957
O      0.105300    1.332900    0.100400
C      0.071000   -0.006400    0.063100
N      0.092000   -0.594800   -1.129500
C      0.056600   -1.930100   -1.126500
N      0.002900   -2.731200   -0.067700
C     -0.017000   -2.106900    1.120700
C      0.015200   -0.731600    1.256800
H      0.141400    1.629600   -0.820800
H      0.073800   -2.409300   -2.102700
H     -0.060900   -2.745600    1.999700
H     -0.001100   -0.234200    2.217600
