16
gdb_17954
C      0.009900    1.403100    0.222900
C      1.158300    2.089100    0.215900
C      2.503300    1.589900   -0.107600
C      2.890200    0.930900   -1.205600
C      2.065900    0.542900   -2.360100
C      0.917600   -0.143400   -2.352900
C      0.196000   -0.678800   -1.188600
C     -0.191100   -0.019600   -0.090700
H     -0.883300    1.923700    0.568400
H      1.126500    3.124200    0.556100
H      3.275300    1.862000    0.612300
H      3.952300    0.708800   -1.309400
H      2.495800    0.791200   -3.330500
H      0.486200   -0.409700   -3.317800
H     -0.112600   -1.719900   -1.283500
H     -0.790000   -0.566300    0.637700
