22
gdb_5983
C     -0.061600    1.583200    0.104200
C      0.030400    0.045500    0.065600
C      0.708300   -0.475400    1.347500
C     -1.394500   -0.534700   -0.012800
O     -2.136500   -0.123900    1.127400
C      0.769600   -0.443000   -1.201100
C      2.219100    0.005100   -1.357300
O      2.695500   -0.553300   -2.576300
H      0.919700    2.044100    0.251200
H     -0.480000    1.975200   -0.830100
H     -0.710700    1.902400    0.922900
H      0.092900   -0.245800    2.220500
H      0.843000   -1.562600    1.306600
H      1.692300   -0.021500    1.498500
H     -1.876600   -0.184500   -0.939700
H     -1.334500   -1.633800   -0.064800
H     -3.020600   -0.494100    1.060400
H      0.761000   -1.540300   -1.227700
H      0.224900   -0.107700   -2.093100
H      2.282200    1.103400   -1.379300
H      2.823300   -0.342200   -0.505700
H      3.610000   -0.280000   -2.692000
