15
gdb_12718
C     -0.091800    1.555800    0.028800
C      0.062300    0.065900    0.076900
O     -1.186000   -0.660900    0.232900
C     -0.651400   -1.470300    1.303700
C      0.743700   -0.833100    1.158800
N      1.574900   -1.385900    0.093300
C      0.975500   -0.684200   -0.943300
O      1.109200   -0.717300   -2.134100
H      0.886400    2.045300    0.003700
H     -0.632600    1.833500   -0.881800
H     -0.655500    1.920900    0.891600
H     -1.150500   -1.242900    2.253400
H     -0.718200   -2.544300    1.098200
H      1.274100   -0.475700    2.040400
H      2.071000   -2.266400    0.056900
