18
gdb_6127
C     -0.220200    1.162100   -1.448300
C      0.317000   -0.133000   -0.863900
O      1.710700   -0.387700   -1.165900
C      2.115600   -0.498800    0.234500
C      2.548100   -1.919600    0.581800
C      3.156500    0.548400    0.610000
C      0.665700   -0.160400    0.629900
O      0.082000    0.031200    1.653800
H      0.381300    2.017800   -1.130000
H     -0.206000    1.116700   -2.541100
H     -1.252700    1.317900   -1.120600
H     -0.315100   -0.982000   -1.163400
H      3.473000   -2.165800    0.050500
H      2.728100   -2.012400    1.657100
H      1.784000   -2.646500    0.293500
H      2.823900    1.551800    0.332600
H      3.341900    0.528300    1.688100
H      4.097800    0.342500    0.090500
