21
gdb_9343
C      0.041600    1.538100    0.129400
C      0.010600    0.015900   -0.032600
C     -1.410500   -0.554300   -0.022100
C     -1.451500   -2.077800   -0.181100
C     -2.877100   -2.600100   -0.347000
O     -3.716200   -2.003600   -1.000200
N     -3.130200   -3.790500    0.273700
C     -4.411400   -4.462100    0.185200
H      1.066500    1.921700    0.113300
H     -0.513000    2.031500   -0.676100
H     -0.413900    1.844200    1.077800
H      0.505200   -0.263200   -0.972800
H      0.600800   -0.449600    0.768500
H     -1.912200   -0.273900    0.913600
H     -2.005300   -0.113500   -0.828600
H     -0.899100   -2.364600   -1.086500
H     -0.947500   -2.571200    0.659300
H     -2.390200   -4.225900    0.797900
H     -4.859300   -4.601200    1.175600
H     -5.065200   -3.829300   -0.416000
H     -4.319500   -5.442100   -0.297300
