20
gdb_18083
C      0.222300    1.320300   -0.075800
O      0.371600   -0.076800   -0.035900
C      0.513800   -0.573700    1.281700
C      0.600600   -2.076000    1.218000
C      1.827900   -2.859300    0.838000
C      3.109000   -2.220800    1.389000
C      2.525000   -2.332300    2.835100
C      1.245800   -2.955200    2.256600
H      1.095000    1.840300    0.352400
H      0.120600    1.610800   -1.124600
H     -0.673300    1.654500    0.473200
H      1.403600   -0.133100    1.757400
H     -0.354100   -0.273900    1.895300
H     -0.304500   -2.520500    0.809000
H      1.793700   -3.588700    0.037600
H      3.987700   -2.854900    1.253500
H      3.349100   -1.219300    1.018200
H      3.088300   -3.042700    3.444300
H      2.411800   -1.407200    3.409600
H      0.695800   -3.768800    2.715300
