15
gdb_4854
C     -0.203400    1.430700   -0.056100
O     -0.055900    0.014700   -0.013900
C     -1.176800   -0.717200    0.017500
C     -1.333100   -2.067600    0.061600
C     -2.753600   -2.279600    0.078000
C     -3.356700   -1.066800    0.042800
N     -4.693000   -0.677900    0.039300
O     -2.365900   -0.075300    0.005000
H      0.810100    1.832700   -0.076100
H     -0.745900    1.748100   -0.952900
H     -0.732300    1.802500    0.827900
H     -0.545300   -2.801300    0.079600
H     -3.271900   -3.224900    0.111600
H     -4.951700   -0.161600   -0.795800
H     -4.942300   -0.114200    0.846200
