14
gdb_1955
O      0.439200    0.954900   -0.577100
C     -0.064100   -0.152900    0.122800
C      0.029100   -0.161500    1.675600
C     -1.460800   -0.644100    1.719400
C     -1.601200   -0.163800    0.234800
C     -1.606500   -2.081400    1.890100
N     -1.714500   -3.225700    2.020000
H      1.384500    0.834500   -0.710700
H      0.306900   -1.098600   -0.294600
H      0.776900   -0.795300    2.154200
H      0.106200    0.859900    2.055500
H     -2.101700   -0.137400    2.443400
H     -1.985000    0.858400    0.204400
H     -2.168300   -0.792600   -0.451700
