15
gdb_16320
C      0.058700    1.344600    0.222200
O      0.044700   -0.035100   -0.139900
C     -1.208200   -0.573000   -0.147000
C     -1.910600   -1.087000    1.125000
C     -1.618300   -2.020100   -0.017300
N     -2.583700   -1.836200   -1.109000
C     -2.274500   -0.464200   -1.242700
O     -2.719800    0.395100   -1.947800
H      1.100300    1.667200    0.178500
H     -0.540100    1.940900   -0.475400
H     -0.325900    1.488800    1.240900
H     -1.238500   -1.153100    1.976700
H     -2.935200   -0.813900    1.360600
H     -0.987500   -2.897200    0.027000
H     -3.541400   -2.167300   -1.056700
