17
gdb_2031
O      0.709900    0.661200   -0.783600
C     -0.016100   -0.214700    0.038700
C      0.110500   -0.113400    1.587400
C     -1.392800   -0.411900    1.661000
C     -2.007100   -1.603400    2.337400
C     -2.344000   -0.200800    2.796800
C     -1.558500   -0.052900    0.178400
H      0.509500    1.561900   -0.507500
H      0.238700   -1.220400   -0.306200
H      0.803000   -0.794000    2.089900
H      0.342000    0.914800    1.893700
H     -2.769200   -2.162100    1.802800
H     -1.376900   -2.212500    2.978300
H     -1.941600    0.135500    3.747400
H     -3.333300    0.185900    2.572400
H     -1.855400    0.994400    0.038600
H     -2.197800   -0.685300   -0.443400
