13
gdb_68
C     -0.026300    1.538800   -0.007800
C      0.014700    0.001000    0.001700
C      0.747400   -0.533900    1.244200
C     -1.402100   -0.538600   -0.015600
O     -1.876200   -1.235800   -0.874000
H      0.988200    1.946300    0.037100
H     -0.507300    1.921500   -0.912900
H     -0.577600    1.923600    0.858000
H      0.505800   -0.364200   -0.906200
H      0.229600   -0.239100    2.164300
H      0.816900   -1.625600    1.229700
H      1.762700   -0.128500    1.290500
H     -2.008600   -0.227900    0.871200
