17
gdb_12402
O      0.102300    1.359100    0.221600
C      0.001600   -0.024700    0.022000
C     -1.450800   -0.497800    0.036500
C     -1.483100   -1.997300   -0.272200
C     -0.911200   -2.278000   -1.663800
N      0.346500   -1.563000   -1.883600
C      0.707600   -0.394300   -1.289000
O      1.587800    0.331800   -1.728000
H      0.850300    1.632500   -0.334200
H      0.546400   -0.571400    0.815700
H     -1.898400   -0.281600    1.011000
H     -2.019500    0.066800   -0.712700
H     -0.898500   -2.539500    0.481000
H     -2.503400   -2.389400   -0.227200
H     -0.731200   -3.350500   -1.794000
H     -1.644700   -1.979400   -2.427700
H      0.832500   -1.738800   -2.752800
