18
gdb_5977
C      0.331800    1.324900    0.536600
C     -0.090500   -0.061300    0.006800
O      0.265200   -1.078300    0.933000
C     -1.582400   -0.135800   -0.377800
C     -2.545500    0.293900    0.720700
O     -2.291100   -0.507000    1.880700
C      0.763100   -0.345000   -1.230400
O      0.534700    0.084000   -2.331300
H      1.409000    1.337000    0.726400
H      0.093600    2.115500   -0.181400
H     -0.171900    1.535700    1.484200
H     -0.424200   -1.077300    1.611600
H     -1.749800    0.482600   -1.265100
H     -1.801700   -1.172200   -0.657900
H     -2.416800    1.359800    0.954400
H     -3.580300    0.153100    0.377800
H     -2.816800   -0.174600    2.613800
H      1.647300   -0.982400   -1.009300
