20
gdb_6018
C     -0.012900    1.564700   -0.047000
C      0.020600    0.029600   -0.025600
C      0.653000   -0.507500   -1.317100
C      0.753600   -0.505900    1.248300
C      0.848700   -2.039000    1.266900
O      2.110800   -0.043700    1.283100
C      0.039700   -0.055100    2.455800
C     -0.531900    0.320000    3.445400
H      0.994900    1.977200   -0.173400
H     -0.614100    1.921200   -0.888600
H     -0.442300    1.973400    0.871900
H     -1.013600   -0.332100    0.041800
H      1.726100   -0.294000   -1.333000
H      0.517400   -1.586000   -1.430400
H      0.197400   -0.026100   -2.188000
H      1.506000   -2.379400    0.464600
H      1.267700   -2.369600    2.219300
H     -0.138700   -2.490400    1.140200
H      2.099500    0.885000    1.537000
H     -1.034800    0.645800    4.322500
