12
gdb_5360
O     -0.087000   -0.018900   -0.001200
C      0.000400    1.180700    0.007700
C      1.284200    1.944900   -0.000000
C      1.256000    3.340600    0.012100
N      2.367800    4.080600    0.006200
C      3.512100    3.399900   -0.012200
C      3.546700    2.000100   -0.024500
N      2.441300    1.266800   -0.018600
H     -0.902700    1.831600    0.022500
H      0.309000    3.876000    0.026900
H      4.432300    3.978600   -0.017300
H      4.495400    1.469200   -0.039500
