14
gdb_2437
O     -0.083900    1.346100   -0.035400
C      0.071800   -0.022400   -0.019500
C      0.942800   -0.906800   -0.896400
N      0.052300   -2.073500   -0.503200
C      0.371900   -2.224800    0.977100
C     -0.294500   -0.886800    1.218700
C     -1.019800   -1.037200   -0.095100
H      0.568000    1.736300    0.557600
H      0.812800   -0.692800   -1.960500
H      2.006500   -1.045200   -0.668800
H     -0.190500   -3.070400    1.382900
H      1.437600   -2.352700    1.200500
H     -0.650500   -0.417000    2.127900
H     -2.053500   -1.029600   -0.408400
