9
gdb_913
O      0.002300   -0.020600    0.002800
C     -0.013900    1.177200    0.009600
N     -1.242500    1.901400    0.030000
C     -1.186300    3.165600    0.035400
O     -0.051100    3.921800    0.023400
C      1.104100    3.196900    0.004400
N      1.194600    1.934700   -0.002900
H     -2.069800    3.798200    0.050500
H      1.970100    3.853300   -0.004000
