14
gdb_9449
N     -0.033800    1.488400    0.124000
C      0.008400    0.034900    0.048000
C     -1.404900   -0.648700   -0.049600
N     -0.981400   -1.210000   -1.333500
C      0.251700   -0.616400   -1.381000
O      1.121800   -0.574500   -2.205200
C      0.876900   -0.516800    1.071400
C      1.614900   -0.984600    1.896200
H      0.915400    1.847800    0.163500
H     -0.450600    1.863900   -0.724500
H     -1.620800   -1.389000    0.724000
H     -2.219600    0.078700   -0.117400
H     -1.476500   -1.762500   -2.017200
H      2.267600   -1.395600    2.626500
