19
gdb_17497
C     -0.102700    1.521900    0.021400
C     -0.045000    0.021200   -0.013300
C     -0.881200   -0.861200    0.878700
C      0.619600   -0.974000    0.910400
N      1.300500   -1.714500   -0.222800
C      0.288900   -2.232200   -1.172700
C      0.601500   -0.785300   -1.181300
C      1.345500   -0.112200   -2.299000
H      0.844500    1.977700   -0.285200
H     -0.887700    1.909900   -0.639700
H     -0.324800    1.873400    1.033900
H     -1.275100   -0.337400    1.745700
H     -1.548600   -1.635400    0.517800
H      1.200600   -0.828800    1.813100
H      0.747100   -2.829300   -1.956800
H     -0.653400   -2.633300   -0.820100
H      0.652200    0.344900   -3.015000
H      2.010300    0.673000   -1.924500
H      1.959500   -0.840100   -2.836500
