20
gdb_10979
C     -0.183100    1.541500   -0.030100
C      0.015200    0.031000   -0.000200
C      1.193200   -0.595800   -0.843000
C      2.132400   -0.209400    0.347100
C      0.862400   -0.605400    1.184600
C      0.674900   -0.220300    2.634200
C      0.754000   -2.087700    0.783800
C      0.970400   -2.080800   -0.534500
H      0.741500    2.108000    0.109500
H     -0.615200    1.847800   -0.989500
H     -0.883000    1.852300    0.754100
H     -0.947500   -0.465400   -0.159400
H      1.396400   -0.295100   -1.871000
H      3.028300   -0.818400    0.489900
H      2.385100    0.853200    0.396700
H      0.748000    0.863100    2.775300
H     -0.306200   -0.538800    3.005600
H      1.436400   -0.688800    3.268200
H      0.535500   -2.908200    1.453900
H      0.978400   -2.895300   -1.245100
