16
gdb_16121
N     -0.010700   -1.124500    0.384300
C      0.012000    0.015900    0.195300
C      0.026700    1.428800   -0.092100
C     -0.832600    1.943300   -1.246200
C     -0.274900    3.354900   -1.544600
C      1.212200    3.307400   -1.119300
C      1.265900    2.273100   -0.008100
N      0.264300    2.323500    1.056800
H     -0.699300    1.276000   -2.104400
H     -1.899400    1.948500   -1.002600
H     -0.397600    3.629200   -2.594300
H     -0.815700    4.110000   -0.965600
H      1.846500    2.967100   -1.945800
H      1.591100    4.284900   -0.803100
H      2.220200    1.849900    0.288400
H     -0.325600    3.150200    0.992900
