11
gdb_21680
N      0.038100    1.400200    0.142200
C     -0.014300    0.026400    0.030300
N     -1.164800   -0.564700    0.013300
O     -1.132200   -1.956000    0.015000
C      0.036500   -2.699200   -0.023900
O     -0.055300   -3.889900   -0.045400
N      1.262900   -2.010100   -0.032600
C      1.226300   -0.731800    0.001300
H      0.787700    1.855500   -0.357900
H     -0.855800    1.857500    0.021500
H      2.173400   -0.187500    0.009500
