20
gdb_8318
C     -0.022900    1.345700    0.145600
O     -0.032000   -0.060400    0.150300
C     -1.311700   -0.604700   -0.094800
C     -1.215400   -2.113600   -0.032700
C     -0.955300   -2.785200    1.344400
C     -1.956900   -3.887300    0.949600
O     -2.791800   -4.311000    2.001600
C     -2.531900   -2.933400   -0.136700
H      1.002300    1.669000    0.343300
H     -0.342700    1.755100   -0.826500
H     -0.682700    1.762800    0.923500
H     -2.034700   -0.239600    0.656500
H     -1.684700   -0.281900   -1.083800
H     -0.482900   -2.452300   -0.772300
H      0.064100   -3.078000    1.600500
H     -1.372600   -2.185500    2.159400
H     -1.441800   -4.739800    0.483000
H     -3.363600   -5.011700    1.672400
H     -3.380300   -2.377200    0.276000
H     -2.810400   -3.350400   -1.107900
