14
gdb_300
C     -0.033400    1.550100    0.019100
C      0.004300    0.040600    0.037900
O     -1.172400   -0.588000   -0.402900
C      1.310800   -0.693100   -0.220300
C      0.672000   -0.687600    1.157700
O      1.233800    0.077200    2.183000
H      0.852500    1.968500    0.500100
H     -0.081000    1.926100   -1.010200
H     -0.918000    1.908300    0.554600
H     -1.258400   -0.416600   -1.347500
H      1.271200   -1.614300   -0.791200
H      2.205300   -0.093100   -0.354000
H      0.181800   -1.608200    1.472200
H      2.052700   -0.350000    2.454500
