15
gdb_20361
C      0.859400    1.472300    0.359500
C      0.972500    0.310800   -0.578400
C     -0.269900    0.461000    0.280600
C     -0.474200   -0.464700    1.402400
N      0.462300   -0.999700    2.172700
C     -0.252200   -1.767100    3.040900
N     -1.562000   -1.751200    2.868900
N     -1.684100   -0.907000    1.810500
H      1.457500    1.448000    1.262600
H      0.673800    2.458800   -0.049800
H      0.865900    0.486000   -1.642900
H      1.646300   -0.492000   -0.303900
H     -1.179700    0.776600   -0.219800
H      0.207500   -2.354900    3.821500
H     -2.596900   -0.695000    1.442800
