13
gdb_21137
C     -0.005900    1.448100    0.125900
N      0.141800    0.005500    0.065800
C      0.614700   -0.529500   -0.978000
N      0.739500   -1.938700   -0.990100
N      1.206900   -2.680000   -1.974500
N      1.598100   -2.102800   -3.048100
C      1.491500   -0.712400   -3.079100
N      1.047900    0.073200   -2.161400
H      0.565100    1.830400    0.979900
H      0.321100    1.967500   -0.781000
H     -1.057600    1.692000    0.315400
H      0.445300   -2.448200   -0.166200
H      1.837200   -0.276300   -4.014000
