17
gdb_2711
C     -0.006100    1.408700   -0.121500
O     -0.004100    0.002500   -0.180000
C     -1.270600   -0.560300    0.071400
C     -1.152500   -2.075300   -0.034400
C     -2.489500   -2.784700    0.231500
C     -2.334400   -4.288700    0.243700
O     -2.977100   -5.056500   -0.423700
H      1.011900    1.746400   -0.329900
H     -0.686400    1.848400   -0.868200
H     -0.306200    1.776800    0.872600
H     -1.629400   -0.274500    1.076600
H     -2.013400   -0.181400   -0.652400
H     -0.782400   -2.330900   -1.033400
H     -0.394400   -2.416800    0.680600
H     -2.864900   -2.489000    1.223000
H     -3.249400   -2.519400   -0.509500
H     -1.546800   -4.658300    0.942900
