22
gdb_15909
C      0.017200    1.400500   -0.128700
O      0.013600    0.016600    0.141000
C     -1.261600   -0.586700    0.067500
C     -1.565400   -1.286400   -1.303400
C     -0.892300   -0.782300   -2.570500
C     -1.062700   -2.619400   -0.681400
C     -1.231900   -1.995200    0.730900
C     -0.194100   -2.279800    1.804800
H      1.041200    1.755000    0.016000
H     -0.292000    1.630800   -1.157700
H     -0.647200    1.945000    0.560400
H     -2.023100    0.114400    0.438800
H     -2.652000   -1.327400   -1.441600
H      0.177600   -0.628900   -2.401400
H     -1.004000   -1.510800   -3.381500
H     -1.323400    0.163500   -2.917400
H     -1.624500   -3.529600   -0.907600
H     -0.007100   -2.793300   -0.915700
H     -2.235900   -2.215700    1.110900
H      0.805400   -2.000700    1.462800
H     -0.401400   -1.716600    2.721300
H     -0.188100   -3.345100    2.061100
