16
gdb_15605
O      0.376400    1.187300   -0.464700
C      0.050100   -0.068800    0.059100
C      0.194100   -0.254700    1.582800
C     -0.616600   -1.529100    1.820900
O     -1.637900   -1.569300    0.799000
C     -1.414300   -0.529900   -0.144300
C     -2.463300    0.547900    0.121400
O     -2.281200    1.742800    0.077400
H     -0.357700    1.784600   -0.256500
H      0.700400   -0.793200   -0.445700
H      1.234200   -0.344400    1.901400
H     -0.249600    0.605000    2.097100
H      0.006500   -2.427000    1.719200
H     -1.104600   -1.563100    2.799800
H     -1.588300   -0.922100   -1.156400
H     -3.451500    0.127100    0.405300
