18
gdb_8029
C     -0.109800    1.577200    0.196600
C      0.043800    0.085400    0.067900
C     -1.197400   -0.837500    0.056700
C     -0.463000   -1.821700    1.023100
O     -0.288600   -3.156900    0.619500
C      0.781300   -0.875000    1.059200
C      1.768700   -1.081700   -0.088600
O      0.962700   -0.295400   -0.997500
H      0.861900    2.061300    0.332500
H     -0.569200    1.987700   -0.709800
H     -0.750400    1.831900    1.047100
H     -2.104800   -0.398500    0.481100
H     -1.427500   -1.240300   -0.933700
H     -0.943700   -1.874600    2.003200
H     -0.046600   -3.160900   -0.312600
H      1.171600   -0.590900    2.036000
H      2.752900   -0.623700    0.072500
H      1.918600   -2.112100   -0.436000
