18
gdb_15076
O      0.126000    1.368900   -0.075400
C     -0.005300   -0.030100    0.107300
C     -1.456000   -0.513300   -0.036500
C     -2.031900   -0.032900   -1.358500
O     -3.059400    0.580800   -1.478300
C     -1.546400   -2.030400    0.036900
C     -1.686300   -2.720100    1.373100
C     -2.845500   -2.699000    0.410000
H     -0.416600    1.811100    0.585900
H      0.615900   -0.487200   -0.672000
H      0.395400   -0.362400    1.076400
H     -2.074400   -0.075500    0.757900
H     -1.424700   -0.321800   -2.249100
H     -0.939600   -2.546400   -0.703700
H     -1.157000   -3.654000    1.526100
H     -1.751700   -2.097300    2.259400
H     -3.689500   -2.058500    0.642500
H     -3.112700   -3.619200   -0.096900
