14
gdb_16601
N     -0.066000    1.276000    0.182000
C      0.014300    0.018900    0.010700
N      1.117200   -0.809700   -0.154700
C      0.780600   -2.211900   -0.067400
C      0.145100   -2.678300    1.207000
C     -0.722100   -2.296700    0.000900
C     -1.222900   -0.886800   -0.051200
O     -2.359100   -0.515600   -0.164900
H      0.857800    1.714400    0.211800
H      2.006600   -0.504400    0.214500
H      1.361200   -2.885300   -0.687300
H      0.168400   -3.736500    1.442900
H      0.164500   -2.014900    2.065100
H     -1.296300   -3.070400   -0.490000
