18
gdb_10918
C     -0.208300    1.528200    0.003900
C     -0.038700    0.017800   -0.052300
C      1.099600   -0.577900   -0.988700
O      1.948900    0.315700   -1.653800
C      1.683800   -1.269700    0.250400
O      2.014000   -0.190600    1.148200
C      0.655500   -0.684700    1.130300
C      0.065800   -1.152600    2.420600
H      0.709500    2.012500    0.348300
H     -0.449400    1.928300   -0.985400
H     -1.014800    1.810500    0.688900
H     -0.990400   -0.474100   -0.282300
H      0.702500   -1.266600   -1.738100
H      2.430200    0.788300   -0.962400
H      2.271600   -2.177400    0.337900
H     -0.238100   -0.302400    3.041400
H     -0.821400   -1.767200    2.237100
H      0.793000   -1.742600    2.984700
