14
gdb_8096
C     -0.091500    1.493300    0.050800
C      0.064100    0.011000    0.054100
O     -1.157000   -0.780200   -0.028000
C     -0.680300   -1.651800    0.938100
O     -1.263400   -2.548500    1.452700
C      0.667100   -0.990000    1.045000
C      1.210100   -0.819600   -0.386100
O      1.054500   -1.768800   -1.380900
H      0.878900    1.978200    0.187800
H     -0.509100    1.827600   -0.904500
H     -0.763100    1.815000    0.851700
H      1.269300   -0.877200    1.935400
H      2.162900   -0.284000   -0.391400
H      1.603200   -2.531600   -1.167800
