14
gdb_16126
N      0.002200   -1.147400    0.125700
C      0.032700    0.006400    0.062000
C      0.042400    1.438300   -0.068700
C     -0.875800    2.097300   -1.100200
O     -0.390600    3.427200   -1.211400
C      1.024900    3.394200   -1.044900
C      1.271400    2.292600   -0.028300
N      0.371000    2.242200    1.120000
H     -0.811400    1.550000   -2.052700
H     -1.923300    2.147800   -0.790200
H      1.542600    3.158000   -1.987400
H      1.339300    4.387400   -0.710200
H      2.265500    1.884400    0.115300
H     -0.229100    3.067100    1.137300
