18
gdb_18047
C      0.036600    1.613700   -0.021000
O      1.301800    1.558600   -0.712900
C      1.288800    0.109700   -0.710100
C      2.552600   -0.526700   -0.109500
C      2.193000   -1.729500    0.729800
C      1.124600   -1.703800    1.527600
C      0.256800   -0.469600    1.591200
C      0.020800    0.083000    0.174600
H      0.094000    2.219600    0.892400
H     -0.762700    2.010800   -0.660500
H      1.117300   -0.274900   -1.723900
H      3.271900   -0.786400   -0.891400
H      3.031600    0.240700    0.513900
H      2.830000   -2.607400    0.678400
H      0.868100   -2.558400    2.146300
H     -0.694800   -0.675300    2.090500
H      0.760300    0.298400    2.197200
H     -0.826200   -0.428700   -0.286600
