15
gdb_5759
C     -0.129100    1.461800   -0.057800
C      1.269800    0.956200    0.146500
C      0.122100   -0.031100    0.044600
C     -0.323600   -0.791500    1.213300
C     -0.806700   -2.045700    1.407400
N     -1.074000   -2.241100    2.760000
C     -0.747900   -1.120500    3.307700
O     -0.281800   -0.183000    2.443200
H     -0.622300    1.936000    0.782700
H     -0.403900    1.856900   -1.029200
H      1.966300    1.000200   -0.683100
H      1.717300    1.090300    1.124300
H      0.050500   -0.600600   -0.875500
H     -0.980600   -2.818800    0.676400
H     -0.796400   -0.837200    4.347200
