12
gdb_20530
C     -0.023600    1.508100   -0.042100
C     -0.027500    0.011900    0.081300
O     -0.049500   -0.623900    1.098900
N     -0.001500   -0.696800   -1.166100
C      0.002300   -2.037600   -1.378800
N      0.029200   -2.264800   -2.664400
N      0.042600   -1.025000   -3.259200
N      0.024900   -0.089300   -2.385400
H      0.867200    1.842600   -0.581000
H     -0.886800    1.844200   -0.622900
H     -0.046800    1.935200    0.959600
H     -0.015000   -2.763500   -0.584000
