15
gdb_1992
N     -0.218900    1.339700    0.133500
C     -0.194200   -0.035800    0.355900
O      0.570100   -0.556800    1.144300
N     -1.156200   -0.732900   -0.342000
C     -1.208500   -2.161500   -0.326200
C     -1.690200   -2.856600    0.916600
C     -2.568400   -2.811600   -0.307600
H      0.609400    1.794200    0.486700
H     -0.511100    1.674100   -0.772500
H     -1.706200   -0.251700   -1.034800
H     -0.426900   -2.664300   -0.892100
H     -1.213900   -3.792200    1.184700
H     -1.956600   -2.225400    1.754800
H     -3.433300   -2.157400   -0.280700
H     -2.705700   -3.715200   -0.890500
