18
gdb_10833
C     -0.125100    1.531400    0.015900
C      0.013100    0.011900    0.008700
C      0.744200   -0.475600   -1.241400
O      0.994600   -1.890300   -1.240000
C      1.355800   -2.508400   -0.076100
N      2.015200   -3.588300   -0.072300
C      0.828500   -1.907100    1.213600
N      0.691700   -0.451700    1.221100
H      0.858900    2.015500   -0.000700
H     -0.685100    1.883400   -0.855700
H     -0.645300    1.854900    0.920500
H     -0.988400   -0.441300    0.018800
H      0.168400   -0.284500   -2.152100
H      1.707700    0.049600   -1.331000
H      2.240600   -3.863800   -1.031500
H     -0.165900   -2.340500    1.391600
H      1.470100   -2.234800    2.032600
H      1.613700   -0.023400    1.269900
