22
gdb_9427
C     -0.088200    1.495400    0.014900
C     -0.035300   -0.023100    0.010600
O     -1.356600   -0.520300    0.013800
C     -1.426300   -1.929100    0.009900
C     -2.894200   -2.352400   -0.032300
C     -3.592900   -1.853200   -1.301600
C     -3.006200   -3.869800    0.115600
O     -4.382400   -4.205600    0.216900
H      0.923100    1.913100    0.012300
H     -0.618500    1.862800   -0.868300
H     -0.612200    1.858200    0.903700
H      0.507100   -0.389200   -0.878100
H      0.513200   -0.393400    0.894000
H     -0.886300   -2.335400   -0.865000
H     -0.933000   -2.336300    0.910200
H     -3.387500   -1.905300    0.840600
H     -3.122100   -2.281300   -2.195800
H     -4.644200   -2.148100   -1.300200
H     -3.524900   -0.765700   -1.373300
H     -2.541900   -4.361800   -0.756100
H     -2.454600   -4.199400    1.011300
H     -4.456800   -5.163500    0.245600
