16
gdb_2016
C     -0.042700    1.371300    0.013700
O      0.033200   -0.042400   -0.022300
C      0.652600   -0.543400   -1.145400
C      2.108900   -0.366000   -1.661100
N      1.496600   -1.352000   -2.666100
C      0.867500   -2.032000   -1.435800
C      0.261300   -0.440400   -2.646900
H      0.955400    1.831500    0.005000
H     -0.618000    1.768400   -0.834600
H     -0.549100    1.641500    0.942300
H      2.396800    0.586500   -2.112800
H      2.920700   -0.795900   -1.068900
H      1.589000   -2.577800   -0.823000
H     -0.007100   -2.642000   -1.674700
H     -0.653500   -0.939700   -2.976000
H      0.416800    0.506800   -3.169300
