16
gdb_20212
C     -0.033300    1.556900   -0.093400
O      1.312400    2.009000    0.082100
C      2.058100    0.993800    0.745400
C      1.814300    1.034200    2.260300
O      0.543500    0.398300    2.451200
C      0.364600   -0.518600    1.398200
C     -0.005400    0.040400    0.039000
C      1.422400   -0.351000    0.352100
H     -0.687400    2.014300    0.660500
H     -0.371100    1.868700   -1.087400
H      3.109200    1.108900    0.472600
H      2.600800    0.483100    2.798600
H      1.752800    2.054200    2.646500
H     -0.016600   -1.483300    1.715200
H     -0.618200   -0.561000   -0.622600
H      1.975300   -1.145700   -0.129900
