20
gdb_11743
C     -0.137800    1.569900    0.089700
C      0.068000    0.060800    0.043900
C      1.123800   -0.541800   -0.949100
C      1.799300   -1.264200    0.226300
C      2.325100   -2.661900    0.187800
O      3.553000   -2.664000   -0.535300
C      2.263700   -0.248000    1.231300
C      0.807100   -0.627100    1.205500
H      0.804200    2.101300    0.259800
H     -0.559100    1.936800   -0.853000
H     -0.827100    1.849600    0.894300
H     -0.897400   -0.429500   -0.117900
H      0.677600   -1.221800   -1.679300
H      1.754000    0.176000   -1.484100
H      2.468200   -3.028200    1.218200
H      1.588700   -3.325400   -0.295300
H      3.826000   -3.578800   -0.654100
H      2.827500   -0.649900    2.067500
H      2.597100    0.734900    0.907900
H      0.328800   -1.074800    2.070100
