16
gdb_10692
C      0.268100    1.112400   -0.557900
C     -0.067800    0.040100    0.477500
O      0.036000    0.523000    1.805700
C     -1.437300   -0.606200    0.242700
C     -1.527900   -1.867300   -0.554200
N     -1.745900   -1.892600    0.891000
C     -2.537800    0.338100    0.229400
N     -3.368000    1.143100    0.218500
H      1.253500    1.532500   -0.342600
H      0.275800    0.696300   -1.570100
H     -0.468300    1.922800   -0.532900
H      0.671400   -0.768800    0.417300
H     -0.552600    1.282100    1.897900
H     -2.410200   -2.061100   -1.155700
H     -0.596800   -2.251300   -0.964300
H     -0.919200   -2.214300    1.390300
