13
gdb_4987
N     -0.052900    1.374900   -0.114100
C     -0.017000    0.012400   -0.053600
N     -1.163000   -0.662900    0.024200
C     -1.082000   -1.997000    0.035500
N      0.016600   -2.738300   -0.014100
C      1.169800   -2.049300   -0.083000
C      1.218200   -0.673400   -0.107000
O      2.353700    0.085200   -0.170900
H      0.795200    1.877900    0.085600
H     -0.925000    1.807700    0.143700
H     -2.028100   -2.529200    0.095500
H      2.091800   -2.630800   -0.119000
H      3.124600   -0.492500   -0.182800
