13
gdb_21732
N     -0.598900    0.960400    0.012800
H     -0.741500   -0.043000    0.051700
H      0.217000    1.121700   -0.570800
H     -1.933000    2.241100   -0.576600
C     -0.374400    1.503300    1.369200
C     -0.563300    2.987700    1.325900
N      0.032200    3.850000    2.096600
O     -0.462600    5.072900    1.742500
N     -1.377900    4.977400    0.712500
C     -1.448800    3.700700    0.450000
O     -2.226800    3.176600   -0.495100
H     -1.134000    1.062000    2.025200
H      0.604600    1.258300    1.799400
