13
gdb_10462
O     -0.412600    0.282500    0.493100
C      0.247600    0.857400   -0.329000
C      1.165000    2.029800    0.002500
C      1.244800    3.051300   -1.115500
C      2.519000    3.706900   -1.477200
O      1.988400    2.652200   -2.273500
C      0.008400    3.760500   -1.408100
N     -0.984300    4.315700   -1.611600
H      0.254400    0.547600   -1.396400
H      0.835400    2.484100    0.940800
H      2.171900    1.621000    0.154800
H      2.501000    4.693500   -1.934200
H      3.406700    3.463000   -0.896400
