18
gdb_8198
C      0.007600    1.498400    0.038000
C     -0.034400   -0.009500    0.067200
C      1.241300   -0.784800   -0.216100
C      0.638800   -0.806500    1.173900
O      1.283700   -0.161000    2.230300
C     -0.273400   -1.957900    1.456100
C     -1.344900   -1.936500    0.662100
C     -1.348800   -0.729000   -0.253200
H      0.934000    1.869000    0.484800
H     -0.055900    1.881700   -0.987100
H     -0.826600    1.925100    0.606300
H      1.207200   -1.690700   -0.813900
H      2.133700   -0.178800   -0.347300
H      2.148400   -0.567100    2.347600
H     -0.042700   -2.709500    2.202900
H     -2.122600   -2.691100    0.632500
H     -2.216700   -0.083100   -0.059300
H     -1.412300   -1.017000   -1.310900
