15
gdb_1852
C     -0.105200    1.568500    0.026100
C      0.028200    0.038200   -0.011600
C      0.813500   -0.506600   -1.225300
C      1.941900   -1.375500   -0.643100
O      2.748900   -2.012800   -1.278100
C      1.840000   -1.272500    0.832400
C      0.797600   -0.507000    1.172100
H      0.880000    2.046600    0.005400
H     -0.675800    1.929300   -0.835100
H     -0.620900    1.899000    0.933900
H     -0.985600   -0.385500    0.007200
H      0.203700   -1.104300   -1.908400
H      1.259700    0.296600   -1.821100
H      2.532200   -1.771700    1.498500
H      0.499900   -0.270900    2.189600
