13
gdb_20500
C     -0.062600    1.464400    0.010300
C      0.003300    0.012100    0.002500
C      0.051400   -1.192400   -0.004000
C      0.099200   -2.604200   -0.011400
C      1.202200   -3.436100   -0.022100
N      0.675400   -4.678700   -0.025400
N     -0.673200   -4.645700   -0.017400
N     -1.027200   -3.399100   -0.008900
H      0.940100    1.905600    0.002900
H     -0.599300    1.841500   -0.867400
H     -0.582500    1.832800    0.901700
H      2.260400   -3.240700   -0.027300
H      1.147600   -5.568700   -0.032700
