18
gdb_6761
C      0.074200    1.402400   -0.007700
O      0.118400   -0.001900   -0.108400
C      0.462600   -0.610900    1.120300
C      0.497500   -2.059600    0.975000
C      0.537400   -3.258300    0.865000
C      0.560800   -4.721200    0.770900
C      1.461200   -5.337800    1.852000
O     -0.751100   -5.279500    0.802000
H      1.049400    1.823800    0.285000
H     -0.196500    1.788000   -0.992900
H     -0.677200    1.737800    0.725300
H      1.446800   -0.248700    1.467000
H     -0.264100   -0.332800    1.904300
H      0.952900   -5.003000   -0.214000
H      1.100000   -5.069100    2.850000
H      1.449100   -6.426400    1.755000
H      2.490200   -4.979700    1.754300
H     -1.202700   -4.910400    1.569000
