16
gdb_18892
C     -0.075100    1.436300    0.023800
C      0.002900   -0.059400    0.015500
O     -1.154500   -0.710400   -0.447800
C     -0.785800   -2.053200   -0.339900
C      0.694800   -2.261100   -0.593300
C      0.144800   -2.297700    0.832300
C      0.702600   -0.884500    1.084400
C      1.253200   -0.847900   -0.342200
H      0.860800    1.862500    0.395100
H     -0.251400    1.821300   -0.985300
H     -0.888900    1.779000    0.670100
H     -1.545000   -2.757800   -0.650900
H      1.121100   -3.040500   -1.209100
H      0.060700   -3.111000    1.539200
H      1.104300   -0.488400    2.007000
H      2.163400   -0.418100   -0.737200
