13
gdb_21810
O     -0.281800    0.301800    0.759200
C     -0.003700    1.057400   -0.129200
C      1.313200    1.841000   -0.163000
N      1.331400    2.877700   -1.170900
C      1.796800    2.801800   -2.456600
N      1.585100    3.920700   -3.097700
N      0.951200    4.779700   -2.221000
C      0.808200    4.141000   -1.089700
H     -0.673900    1.239600   -0.998400
H      1.495200    2.267600    0.827500
H      2.125600    1.133100   -0.359600
H      2.280000    1.922300   -2.854300
H      0.354700    4.532300   -0.191600
