19
gdb_9857
C      0.090100    1.434900    0.316600
C      0.037200    0.001600    0.065000
C     -0.000100   -1.183800   -0.143800
C     -0.064500   -2.623800   -0.386200
C     -1.444800   -3.226400   -0.116000
C     -2.551000   -2.742800   -1.028300
C     -1.484600   -4.600300    0.447000
N     -1.842900   -3.438000    1.285000
H      0.921300    1.692300    0.982400
H      0.223900    1.999200   -0.613000
H     -0.832900    1.789300    0.788700
H      0.220300   -2.834700   -1.426500
H      0.678900   -3.136000    0.239100
H     -2.352400   -3.026000   -2.068300
H     -3.507900   -3.173900   -0.725400
H     -2.636000   -1.652500   -0.983300
H     -2.312800   -5.262400    0.208000
H     -0.541800   -5.109700    0.632200
H     -1.072300   -3.205600    1.907500
