20
gdb_12006
C     -0.417900    1.618600    0.026600
C      0.012600    0.148200    0.053900
C     -1.205800   -0.779600   -0.097900
C      1.060000   -0.160700   -1.053100
O      1.893500   -1.210700   -0.567300
C      1.916400   -1.116200    0.834900
C      2.219400    0.218500    1.464800
C      0.782900   -0.258300    1.312700
H      0.432700    2.285600    0.198400
H     -0.864000    1.881600   -0.939700
H     -1.165700    1.823400    0.799900
H     -1.767100   -0.543200   -1.008500
H     -0.891100   -1.826200   -0.154500
H     -1.889400   -0.675500    0.751600
H      0.606100   -0.499600   -1.989100
H      1.660200    0.733800   -1.275100
H      2.230500   -2.043200    1.299300
H      2.634000    0.208300    2.467300
H      2.587300    1.027600    0.843100
H      0.212700   -0.500600    2.202800
