17
gdb_20240
C     -0.030500    1.558000   -0.102500
C      1.429400    1.951400    0.053600
C      2.158100    1.409400    1.267500
C      1.357500    0.525400    2.209900
C      0.710100   -0.481200    1.272900
C     -0.003800    0.049800    0.084100
N      1.381300   -0.480600   -0.057100
C      2.261900    0.694200   -0.060900
H     -0.690100    2.053800    0.620100
H     -0.391900    1.813000   -1.104700
H      1.773400    2.889300   -0.368000
H      2.990300    1.984000    1.658800
H      2.021600    0.016600    2.917100
H      0.616500    1.081100    2.797500
H      0.441400   -1.458300    1.665000
H     -0.786000   -0.545200   -0.379400
H      3.170300    0.611900   -0.642800
