20
gdb_17377
C      0.047100    1.528600   -0.036300
C      0.051600    0.004600    0.096300
O      0.675400   -0.408100    1.312300
C     -1.347100   -0.595900   -0.020100
C     -2.115500   -0.545100   -1.388800
C     -2.290000   -2.068400   -1.324100
C     -0.945200   -2.733200   -1.279800
C     -1.492500   -2.124900   -0.017900
H      1.061300    1.922300    0.072100
H     -0.347400    1.845000   -1.007400
H     -0.580600    1.983200    0.741200
H      0.691100   -0.417800   -0.688100
H      0.158000   -0.045700    2.040400
H     -1.976200   -0.156600    0.765300
H     -3.050800    0.014400   -1.323300
H     -1.550200   -0.174000   -2.251700
H     -3.188900   -2.606500   -1.598800
H     -0.959700   -3.818200   -1.302300
H     -0.095100   -2.295300   -1.798200
H     -1.669200   -2.729000    0.863300
