16
gdb_11767
C      0.000900   -1.190800   -0.039900
C      0.012100    0.011600   -0.008300
C      0.021700    1.448300    0.025700
C     -0.314800    2.292000    1.310700
C      0.357400    3.395700    0.462200
C      1.334200    2.313100   -0.051700
O     -0.552000    3.572800   -0.635900
C     -0.840400    2.210200   -1.006000
H     -0.006700   -2.252300   -0.065200
H     -1.367300    2.425000    1.569700
H      0.271800    1.976500    2.173900
H      0.664600    4.364900    0.849100
H      2.076000    1.999600    0.683200
H      1.784900    2.465400   -1.034600
H     -0.532600    2.018000   -2.039500
H     -1.910300    2.000400   -0.901200
