10
gdb_784
O      0.111800    1.327500    0.082800
C      0.071500   -0.021000    0.079700
N      0.107700   -0.715800   -1.048500
N      0.047800   -2.006500   -0.631700
C     -0.023300   -2.121900    0.712800
C     -0.011000   -0.841900    1.226400
H      0.166800    1.609500   -0.838800
H      0.060000   -2.739200   -1.318300
H     -0.076500   -3.084400    1.197100
H     -0.054000   -0.538100    2.258000
