13
gdb_6621
C     -0.013800    1.477300    0.010100
C     -0.006500    0.026900    0.002300
C      0.002200   -1.183800   -0.004300
C      0.013700   -2.540800   -0.011700
C      0.015000   -3.753200   -0.018200
C      0.112600   -5.204300   -0.027000
N     -1.095300   -5.839000   -0.018900
O      1.179200   -5.788700   -0.040200
H      1.005900    1.878000    0.002400
H     -0.537000    1.872500   -0.867700
H     -0.519800    1.863000    0.902200
H     -1.961200   -5.329500   -0.007900
H     -1.106200   -6.845700   -0.024200
