18
gdb_10254
C      0.003700    1.556300    0.018200
C      0.030900    0.024400    0.031300
C      0.773000   -0.503700    1.263300
C     -1.423400   -0.557300   -0.032600
C     -2.165200   -0.065300   -1.199400
C     -2.765400    0.340200   -2.157800
C     -1.433500   -2.024700   -0.014400
C     -1.433600   -3.225900   -0.001000
H      1.023300    1.953600    0.028600
H     -0.505900    1.943100   -0.867300
H     -0.512300    1.945700    0.904300
H      0.546600   -0.327800   -0.870100
H      0.280100   -0.175900    2.186800
H      0.815200   -1.595200    1.271500
H      1.797700   -0.120100    1.281900
H     -1.944900   -0.205300    0.871400
H     -3.303200    0.692200   -3.003100
H     -1.443400   -4.287700    0.008800
