17
gdb_14648
C      0.018600    1.456300    0.032700
C      0.005100    0.001300   -0.020300
C      0.010000   -1.201600   -0.065300
C     -0.020800   -2.658100   -0.116500
C     -1.445700   -3.200800    0.009600
O     -1.360000   -4.624400   -0.052500
C     -2.523000   -5.296000    0.041800
N     -2.530500   -6.557200   -0.004700
H      0.920200    1.826500    0.533100
H     -0.005800    1.892900   -0.971800
H     -0.846500    1.842700    0.582900
H      0.408600   -3.022600   -1.057300
H      0.588000   -3.087800    0.688000
H     -1.889600   -2.884700    0.961900
H     -2.071300   -2.818400   -0.806600
H     -3.399700   -4.642700    0.156200
H     -3.484600   -6.901200    0.080400
