19
gdb_7354
C      0.047900    1.506300   -0.075200
C      0.038800   -0.008800   -0.000300
O      0.662600   -0.503500   -1.196600
C      0.733200   -1.856800   -1.286200
O      0.305900   -2.603600   -0.429000
N      1.336300   -2.258600   -2.444700
C      1.490000   -3.678400   -2.695400
C      1.842900   -1.358900   -3.462900
H      1.070600    1.889300   -0.139800
H     -0.507000    1.858700   -0.949500
H     -0.420100    1.924700    0.820800
H      0.589700   -0.377400    0.870600
H     -0.978200   -0.407800    0.065600
H      0.969400   -3.968700   -3.617500
H      2.550300   -3.940300   -2.807700
H      1.069400   -4.227600   -1.855100
H      1.673700   -0.327000   -3.168100
H      2.919700   -1.514400   -3.613300
H      1.341500   -1.541800   -4.422900
