15
gdb_4871
N     -0.236800   -0.102700   -0.587300
H      0.236800   -0.397500    0.264000
H      0.467900   -0.110200   -1.320000
H     -0.889000   -0.846700   -0.820600
C     -0.588600    2.221700    1.837500
C      0.117600    1.554300    2.750800
C      0.442500    1.904700    4.124600
C      1.179300    0.915000    4.652200
C      1.357900   -0.124600    3.620000
O      1.935100   -1.172500    3.637700
O      0.686600    0.324400    2.482200
H     -1.014600    3.182800    2.097000
H     -0.740100    1.814000    0.842900
H      0.118500    2.823200    4.593800
H      1.599800    0.824600    5.641700
