9
gdb_3918
O     -0.011700   -0.021300   -0.000200
C      0.008700    1.180600    0.008300
C      1.256300    1.985700    0.001500
N      1.328000    3.287100    0.009900
C      2.682200    3.487800   -0.002100
N      3.400700    2.393500   -0.017400
O      2.450100    1.382000   -0.014800
H     -0.899000    1.812900    0.021900
H      3.145900    4.463000    0.000100
