13
gdb_18319
O     -0.116400   -0.029500   -0.181300
C     -0.026800    1.156500    0.004200
N     -1.097200    2.046100    0.155600
C     -0.668100    3.345700    0.457500
C      0.645900    3.462100    0.210900
C      1.849100    3.733700    1.084800
O      2.113700    2.291300    1.072300
C      1.207000    2.095200   -0.057500
H     -2.054100    1.730900    0.143500
H     -1.343400    4.028300    0.956600
H      2.678400    4.277900    0.617400
H      1.670500    4.117300    2.093800
H      1.770900    1.885200   -0.973700
