13
gdb_20655
C     -0.024300    1.517100   -0.014000
C     -0.054800    0.022600    0.003300
C     -1.157900   -0.740500   -0.147200
C     -1.036000   -2.168200   -0.108300
N      0.067700   -2.813100    0.062300
O      1.209800   -2.046200    0.218000
C      1.231100   -0.657600    0.202300
O      2.292100   -0.111500    0.351200
H      0.642400    1.874600   -0.805600
H     -1.021900    1.934200   -0.166400
H      0.388800    1.900000    0.925000
H     -2.137200   -0.296700   -0.297400
H     -1.905200   -2.808000   -0.225800
