17
gdb_2147
C     -0.087100    1.592800    0.048100
C      0.084400    0.072600    0.016200
C      0.910800   -0.471600   -1.133400
C      1.661200   -1.509100   -0.760200
C      1.461900   -1.832900    0.703800
C      0.818700   -0.534600    1.251700
O      1.805300    0.341000    1.780700
H      0.877000    2.103400    0.112000
H     -0.598800    1.941300   -0.855100
H     -0.681000    1.903400    0.913200
H     -0.918300   -0.381000   -0.033300
H      0.850800   -0.066500   -2.138300
H      2.306200   -2.087400   -1.412600
H      0.790900   -2.695400    0.824600
H      2.383300   -2.068600    1.246800
H      0.133700   -0.719600    2.083200
H      2.460400    0.485000    1.087600
