14
gdb_4741
C      0.013100    1.517700    0.002600
C      0.003600    0.023400   -0.022300
C     -0.134900   -0.813400   -1.117300
N     -0.079700   -2.083300   -0.623700
C      0.088200   -1.987800    0.736000
C      0.184900   -3.189900    1.563200
O      0.332300   -3.212700    2.760600
N      0.140200   -0.719800    1.112900
H      0.953200    1.894200    0.418200
H     -0.108700    1.930600   -1.002200
H     -0.795100    1.901700    0.633100
H     -0.263500   -0.610600   -2.168100
H     -0.149100   -2.934900   -1.157400
H      0.107700   -4.133100    0.969300
