14
gdb_4304
C     -0.027700    1.495400    0.000400
C      0.002300   -0.005700   -0.015000
N     -0.029000   -0.609300   -1.161900
C     -0.003600   -1.985900   -1.224700
N     -0.031300   -2.628400   -2.313300
O      0.057600   -2.720500   -0.001300
C      0.088600   -2.064900    1.162200
C      0.064400   -0.724000    1.238800
H      0.864200    1.889500    0.501400
H     -0.073900    1.880000   -1.018200
H     -0.894800    1.853700    0.567600
H     -0.004000   -3.631300   -2.133700
H      0.134400   -2.740000    2.010600
H      0.090300   -0.216600    2.192800
