16
gdb_18001
O      0.168200   -0.060500   -0.591300
C      0.094900    1.062500   -0.167100
C      1.251600    2.021500   -0.032200
O      2.548100    1.457600   -0.257600
C      2.856500    2.432600   -1.277400
C      2.561700    1.922100   -2.705500
C      1.126900    2.533600   -2.615800
C      1.433100    3.054900   -1.182800
H     -0.878900    1.509700    0.147800
H      1.185200    2.502100    0.957400
H      3.793600    2.956900   -1.075100
H      3.187800    2.374500   -3.478800
H      2.614000    0.835100   -2.788200
H      0.959100    3.347700   -3.324000
H      0.299400    1.826800   -2.704800
H      1.217600    4.096200   -0.950500
