17
gdb_13975
C     -0.058200    1.464800    0.037100
C     -0.014600    0.011300    0.001000
C      0.011000   -1.193900   -0.031900
C      0.085500   -2.616200   -0.051700
C     -0.413700   -3.453300   -1.171200
N     -1.135800   -3.556900    0.102200
C     -0.277200   -4.439300    0.969500
C      0.928700   -3.470600    0.903900
H      0.681800    1.865500    0.738700
H      0.148200    1.898500   -0.947800
H     -1.043400    1.821800    0.357500
H     -0.984500   -2.947700   -1.943300
H      0.180600   -4.298600   -1.517900
H     -0.718900   -4.525800    1.963500
H     -0.134400   -5.442700    0.553900
H      1.876100   -3.843000    0.503800
H      1.116900   -2.968900    1.853800
