18
gdb_14008
O     -0.195400    0.210200   -0.744800
C     -0.041400    1.257600   -0.164700
C      1.239300    1.981700   -0.045100
C      1.198300    3.509200    0.038800
C      1.550600    2.722600    1.246100
C      0.787100    2.719700    2.581400
C      2.116700    3.136800    3.277000
C      2.896300    2.756900    1.982500
H     -0.898200    1.765400    0.340200
H      2.072200    1.522900   -0.568500
H      1.977900    4.044800   -0.492700
H      0.218400    3.977400   -0.003300
H     -0.058600    3.406400    2.670100
H      0.457500    1.720100    2.880100
H      2.156200    4.209100    3.481900
H      2.384700    2.597100    4.187100
H      3.361100    1.768700    2.049900
H      3.640600    3.469800    1.618100
