19
gdb_13184
C      0.636200   -0.394500    1.317900
C     -0.068900    0.000100    0.010400
C     -0.082400    1.521800   -0.070000
O     -1.023600    2.217200    0.208100
N      0.648200   -0.519600   -1.135700
C      0.016600   -0.424500   -2.472100
C      0.630500   -1.799500   -2.821500
C      0.811400   -1.982400   -1.295300
H      0.689300   -1.483300    1.408900
H      1.657500   -0.001300    1.339800
H      0.086800   -0.006100    2.179200
H     -1.120900   -0.339700    0.046300
H      0.894500    1.950700   -0.392800
H     -1.084300   -0.460500   -2.428700
H      0.316300    0.445800   -3.064800
H     -0.009300   -2.515800   -3.336700
H      1.581900   -1.713700   -3.349100
H      1.760700   -2.386500   -0.930200
H     -0.015300   -2.561200   -0.851800
