11
gdb_4250
N     -0.089200    1.281800    0.376800
C     -0.010800    0.099000   -0.050400
N     -1.162900   -0.670300   -0.212200
C     -1.105100   -1.941100   -0.668600
N     -0.028700   -2.568500   -0.995200
C      1.173300   -1.891400   -0.871000
O      2.250300   -2.324100   -1.128600
O      1.131100   -0.548300   -0.390300
H      0.833700    1.706600    0.438400
H     -2.034600   -0.224500    0.030100
H     -2.063900   -2.448200   -0.756000
