18
gdb_15163
O     -0.052100    1.416000    0.151300
C     -0.053000   -0.007900    0.171100
C     -1.413700   -0.501200    0.001700
C     -2.532500   -0.923400   -0.135000
C     -3.883000   -1.453700   -0.305600
C     -3.950900   -2.967900   -0.161700
C     -4.088500   -3.593100    1.200200
C     -5.248000   -3.624200    0.232600
H      0.860000    1.702000    0.265200
H      0.582100   -0.415300   -0.632900
H      0.354800   -0.390900    1.121200
H     -4.553600   -0.992800    0.432100
H     -4.270400   -1.160000   -1.290600
H     -3.333800   -3.504200   -0.876500
H     -3.558300   -4.517200    1.401300
H     -4.160000   -2.928800    2.055200
H     -6.098900   -2.983200    0.440700
H     -5.510300   -4.568500   -0.231600
