16
gdb_18030
C     -0.002400    1.393200   -0.205600
N      1.448800    1.442300    0.146100
C      1.410100    0.121200    0.580900
N      2.001900   -0.545300    1.477400
C      1.287900   -1.825300    1.657200
C     -0.227400   -1.583800    1.737200
O     -0.777700   -0.973200    0.557300
C      0.124600   -0.170400   -0.156600
H     -0.660600    1.767400    0.584800
H     -0.248600    1.853300   -1.165000
H      1.850500    2.172800    0.720900
H      1.513900   -2.531700    0.845500
H      1.621900   -2.288400    2.590600
H     -0.769000   -2.526600    1.861300
H     -0.433900   -0.948600    2.610900
H      0.266000   -0.581200   -1.162600
