18
gdb_17890
C     -0.128300    1.509600   -0.007900
C      0.019400   -0.006500    0.012600
C      1.188800   -0.618500   -0.822100
C      2.101200   -0.426900    0.420900
C      0.785500   -0.630200    1.222000
O      0.441400   -2.017000    1.287800
C      0.946300   -2.734700    0.179800
O      0.898500   -2.003700   -1.028900
H      0.814100    2.033500    0.181100
H     -0.501700    1.848000   -0.980400
H     -0.843900    1.838100    0.753600
H     -0.940500   -0.492800   -0.179600
H      1.464300   -0.196500   -1.790600
H      2.940900   -1.104400    0.582700
H      2.456500    0.600900    0.496900
H      0.671600   -0.219500    2.227300
H      1.982800   -3.047300    0.382600
H      0.321700   -3.622600    0.051500
