22
gdb_6274
C     -0.079000    1.534500    0.123500
C     -0.066000    0.004000    0.001300
C     -1.499600   -0.541200   -0.074400
C      0.740400   -0.486000   -1.215700
C      2.245600   -0.116400   -1.235800
C      3.029400   -0.719800   -0.052200
C      2.840200   -0.532800   -2.506000
C      3.320200   -0.896800   -3.546800
H      0.922800    1.950000    0.269400
H     -0.502400    1.994300   -0.777900
H     -0.690400    1.851400    0.974800
H      0.392800   -0.405400    0.911300
H     -2.016600   -0.162000   -0.964100
H     -1.508900   -1.635000   -0.126100
H     -2.083700   -0.240800    0.801600
H      0.660700   -1.578200   -1.284300
H      0.278400   -0.089100   -2.128600
H      2.333300    0.976700   -1.176800
H      4.091000   -0.470600   -0.126100
H      2.655700   -0.338000    0.901900
H      2.938100   -1.810600   -0.046800
H      3.747900   -1.206000   -4.468000
