16
gdb_7248
C     -1.272200    1.168500    0.990600
C     -0.490200    0.356400   -0.055700
O      0.889500    0.434800    0.185600
C     -0.928000   -1.105300   -0.063600
O     -0.125900   -1.977300    0.185500
C     -2.394600   -1.464800   -0.339400
C     -3.082800   -0.621300   -1.305700
C     -3.651500    0.067700   -2.109300
H     -0.876600    2.186700    1.005800
H     -2.337700    1.214800    0.749800
H     -1.141100    0.738100    1.988200
H     -0.722100    0.763400   -1.052700
H      1.182100   -0.479400    0.326900
H     -2.409300   -2.515200   -0.646400
H     -2.913000   -1.418800    0.629500
H     -4.153200    0.675400   -2.821400
