13
gdb_20638
C      0.050000    1.502700   -0.010000
C     -0.085000    0.023200    0.055400
C     -1.112000   -0.838000   -0.164000
C     -0.540800   -2.123800    0.079300
N      0.733400   -2.030400    0.418700
O      1.015700   -0.674500    0.402000
C     -1.183500   -3.385000   -0.008400
C     -1.762500   -4.435300   -0.093300
H      0.812100    1.793500   -0.740100
H     -0.900300    1.954400   -0.299700
H      0.349700    1.911000    0.960500
H     -2.123800   -0.612300   -0.454000
H     -2.261400   -5.370300   -0.164300
