16
gdb_8247
O      0.130200    0.062800    0.331100
C      0.036200    1.218400    0.038000
C     -1.150200    2.190100   -0.090600
C     -0.179600    3.200700   -0.779800
C     -0.163300    4.625500   -0.212400
C      0.885600    5.454400   -0.795100
C      1.760700    6.111700   -1.292100
C      1.036600    2.284900   -0.434300
H     -2.006200    1.826500   -0.664800
H     -1.509500    2.525800    0.889400
H     -0.346300    3.241900   -1.858700
H     -1.140900    5.096000   -0.379800
H     -0.030600    4.579700    0.877600
H      2.529600    6.703200   -1.723700
H      1.651600    2.666400    0.389000
H      1.702900    1.988700   -1.247900
