18
gdb_12572
O     -0.087600    1.433200   -0.093900
C      0.006900    0.015900    0.014100
C     -1.431200   -0.498900    0.102600
C     -1.564900   -1.930500    0.639600
O     -0.522900   -2.830900    0.273600
C     -0.041400   -2.772200   -1.038800
O      1.055600   -1.907700   -1.179400
C      0.741900   -0.530400   -1.224700
H      0.805100    1.793700   -0.106800
H      0.564700   -0.276500    0.917100
H     -1.993200    0.168300    0.764400
H     -1.892600   -0.405100   -0.887200
H     -1.541100   -1.921600    1.733800
H     -2.540000   -2.342400    0.338600
H      0.341800   -3.768400   -1.273300
H     -0.842400   -2.503600   -1.749400
H      0.136500   -0.291400   -2.114800
H      1.704500   -0.017000   -1.330400
