16
gdb_19769
C      0.040200    1.546700    0.131200
C      1.526200    1.829800   -0.012400
C      2.398700    0.790400    0.679500
C      1.732900   -0.175100    1.645700
O      0.441400   -0.598100    1.192100
C      0.047600    0.011400   -0.014000
O      0.994500   -0.253500   -1.039800
C      2.055800    0.642000   -0.777300
H     -0.392900    1.840900    1.090100
H     -0.528400    2.017700   -0.677100
H      1.890700    2.836200   -0.175400
H      3.412100    1.079400    0.939500
H      2.353900   -1.072100    1.767300
H      1.623100    0.286600    2.637500
H     -0.900300   -0.447100   -0.295000
H      2.786800    0.681400   -1.574200
