15
gdb_4103
O     -0.159200    1.297700   -0.083000
N     -0.008900   -0.096600   -0.030100
C     -1.137000   -0.679500    0.016100
C     -2.516000   -0.054400    0.024100
C     -3.414600   -1.267000    0.019400
C     -2.734700   -2.413300    0.047500
C     -1.235600   -2.207300    0.049900
O     -0.560800   -2.872800   -1.009000
H      0.754800    1.600600   -0.116200
H     -2.653000    0.577900    0.911400
H     -2.670100    0.610700   -0.835500
H     -4.495700   -1.182100    0.006400
H     -3.162300   -3.408900    0.052600
H     -0.768000   -2.607800    0.957300
H     -0.892300   -2.508000   -1.837400
