16
gdb_18866
O      0.138100    1.373400   -0.535400
C      0.107100    0.036000   -0.131800
C     -1.274300   -0.690100   -0.073400
C     -1.809500   -1.462100   -1.343400
C     -1.306500   -1.210600   -2.777500
C      0.108200   -0.745700   -2.451700
C      0.414100   -1.065900   -1.178600
C     -0.658800   -1.977200   -0.561300
H      0.903300    1.799400   -0.139300
H      0.595000   -0.092600    0.845100
H     -1.955200   -0.584200    0.768200
H     -2.808400   -1.865200   -1.183300
H     -1.422900   -2.120700   -3.383200
H     -1.823800   -0.403300   -3.309800
H      0.499400    0.151400   -2.920300
H     -0.522000   -2.917400   -0.045100
