13
gdb_10118
O      0.082400    1.403900    0.084300
C      0.040500    0.007900   -0.024000
C     -1.400300   -0.526300   -0.039100
O     -1.978700   -0.124800    1.212200
C     -3.062000   -0.814200    1.661800
O     -3.589300   -0.549900    2.694200
C     -2.183100    0.011100   -1.162900
N     -2.806400    0.399700   -2.053900
H     -0.352000    1.648400    0.909800
H      0.531000   -0.261900   -0.963500
H      0.563500   -0.498800    0.800600
H     -1.384600   -1.621400   -0.115400
H     -3.370700   -1.624500    0.976200
