20
gdb_11908
C      0.024400    1.558500   -0.045200
C      0.141500    0.044800   -0.075700
C      0.876700   -0.552200   -1.282400
C      1.331200   -1.888700   -0.720200
C      0.703700   -3.183400   -1.173400
C      2.152100   -2.883000   -1.486800
C      1.566800   -1.609100    0.765000
O      0.912500   -0.376100    1.054600
H      1.013800    2.020800   -0.118300
H     -0.591800    1.913500   -0.877500
H     -0.438900    1.887600    0.889200
H     -0.866500   -0.401300   -0.015000
H      0.242100   -0.648100   -2.167500
H      1.735800    0.080200   -1.541300
H      0.492400   -3.938700   -0.422800
H     -0.013200   -3.152100   -1.987900
H      2.417300   -2.647500   -2.512500
H      2.914900   -3.439000   -0.950200
H      1.168700   -2.413300    1.400300
H      2.633700   -1.492000    0.999500
