16
gdb_20106
C      0.460400    1.476300    0.100000
O      1.064700    0.277500   -0.390100
C     -0.291200    0.211000    0.059100
C     -0.546400   -0.604800    1.271400
C      0.517100   -0.966300    2.287800
C     -0.236300   -2.055000    1.589400
O     -1.507600   -2.276100    2.204400
C     -1.921000   -0.928400    1.857100
H      0.843900    1.832200    1.054700
H      0.272300    2.243400   -0.649600
H     -1.017200    0.082800   -0.746500
H      1.527200   -0.803000    1.925800
H      0.356300   -0.799500    3.349700
H      0.199800   -2.859600    1.009100
H     -2.253100   -0.352200    2.728800
H     -2.718700   -0.954900    1.104600
