13
gdb_1904
C      0.052700    1.536200    0.019100
C     -0.075100    0.051900    0.116500
C     -1.343500   -0.817500   -0.006100
C     -0.654600   -1.791000    0.998900
O     -1.031000   -2.736300    1.623500
C      0.595000   -0.918800    1.030900
O      0.986300   -0.774500   -0.355000
H      1.065100    1.850200    0.284800
H     -0.153200    1.873900   -1.002400
H     -0.659600    2.030600    0.686700
H     -2.246800   -0.390200    0.440300
H     -1.560300   -1.192700   -1.008100
H      1.364000   -0.795000    1.784700
