14
gdb_17325
O      0.111000    1.417300   -0.074100
C     -0.076100    0.047500    0.010400
C     -0.436200   -0.784900    1.231800
C     -1.607200   -0.189000    2.055500
O     -2.018600    1.085000    1.493000
C     -2.480900   -0.142200    0.892100
C     -1.353900   -0.743300   -0.015300
O     -1.628300   -1.778800   -0.886300
H     -0.589100    1.808800    0.466200
H      0.687100   -0.464600   -0.574300
H      0.189700   -1.589500    1.596100
H     -1.816900   -0.347000    3.105600
H     -3.548600   -0.285200    0.775200
H     -1.712700   -1.413300   -1.774600
