9
gdb_771
N      0.018400    1.360100    0.153900
C     -0.019300   -0.002900    0.043000
N     -1.132400   -0.700500   -0.011200
O     -0.658900   -2.032800   -0.043500
C      0.665300   -1.954600   -0.015900
N      1.142200   -0.752700    0.036400
H      0.870900    1.780300   -0.182100
H     -0.823800    1.839700   -0.124700
H      1.215300   -2.884400   -0.039100
