13
gdb_21014
C     -0.011400    1.472200    0.009600
N     -0.047500    0.017000    0.001300
C     -1.212800   -0.689900    0.004600
C     -1.185800   -2.038900   -0.003100
C      0.097800   -2.715100   -0.014700
O      0.262100   -3.915600   -0.022300
N      1.255800   -1.851300   -0.017200
N      1.170900   -0.593300   -0.009700
H      1.037100    1.767300    0.002900
H     -0.510700    1.875700   -0.876400
H     -0.496300    1.865300    0.908200
H     -2.123900   -0.100800    0.013500
H     -2.095300   -2.625100   -0.000700
