21
gdb_7435
C     -0.427300    1.444400    0.006600
C     -0.008500   -0.039000    0.032500
C     -1.202400   -0.942100    0.363700
C      0.565900   -0.427400   -1.339300
O     -0.160100   -0.918000   -2.191100
N      1.896600   -0.182400   -1.589500
C      2.441500   -0.542000   -2.889000
C      2.849200    0.425400   -0.682200
H      0.418700    2.111700   -0.185500
H     -1.169900    1.610800   -0.780100
H     -0.874400    1.732800    0.963100
H      0.747800   -0.178000    0.811500
H     -1.963900   -0.866500   -0.415000
H     -0.900800   -1.991300    0.429000
H     -1.641100   -0.650200    1.323200
H      2.813200    0.347800   -3.413500
H      3.278400   -1.242600   -2.773500
H      1.651700   -1.006500   -3.475900
H      2.375700    0.757500    0.238000
H      3.651700   -0.279400   -0.423200
H      3.317500    1.299700   -1.153900
