17
gdb_11361
C      0.038300    1.538100    0.212500
C     -0.036900    0.035300   -0.112200
C     -1.424800   -0.522500   -0.075400
C     -2.117500   -1.052300   -1.091500
N     -3.394400   -1.478600   -0.687500
C     -3.604600   -1.247400    0.659400
O     -4.605300   -1.514400    1.283100
C     -2.303700   -0.589700    1.155200
H      1.072600    1.893300    0.172400
H     -0.551500    2.121600   -0.501300
H     -0.346200    1.749400    1.215400
H      0.392500   -0.144600   -1.105000
H      0.600500   -0.508900    0.599700
H     -1.815200   -1.181800   -2.121700
H     -4.083900   -1.913900   -1.276600
H     -1.874600   -1.193400    1.964000
H     -2.536900    0.389600    1.588600
