14
gdb_7038
C      0.040900    1.445700   -0.119000
C      0.032000   -0.002100   -0.010300
C      0.016300   -1.205500    0.081000
C     -0.023100   -2.646300    0.192700
O     -1.059100   -3.264000    0.359700
C      1.264200   -3.296100    0.090700
C      2.331300   -3.854000    0.007500
C      3.610400   -4.533900   -0.091400
H      1.055300    1.831900   -0.262200
H     -0.571200    1.774200   -0.966000
H     -0.373700    1.904600    0.785200
H      3.613900   -5.231200   -0.936400
H      4.432700   -3.824900   -0.232000
H      3.812000   -5.113900    0.815800
