16
gdb_16777
O     -0.453800    1.554300   -0.031700
C     -0.126700    0.181300    0.001900
C     -1.406900   -0.643500    0.013900
O     -2.193500   -0.331300    1.154300
C     -3.502900   -0.045200    0.729800
C     -3.701700    1.241200   -0.045600
C     -3.493700   -0.081100   -0.755500
O     -2.179300   -0.386900   -1.149700
H      0.362500    2.060600   -0.045500
H      0.456700   -0.126600   -0.879300
H      0.447000   -0.085300    0.902800
H     -1.131300   -1.712900    0.041400
H     -4.271500   -0.474200    1.361900
H     -4.700300    1.666700   -0.062200
H     -2.873000    1.938800   -0.057300
H     -4.254600   -0.540200   -1.375700
