18
gdb_9616
C     -0.275500    1.275100    0.045800
O      0.334100    0.004600   -0.077600
C      0.796500   -0.543200    1.119000
C      2.056000    0.087900    1.672800
C     -0.232700   -1.124300    2.050100
C      0.646600   -2.052800    1.207700
C      0.076100   -2.809200    0.133800
C     -0.387500   -3.474500   -0.754300
H      0.439500    2.054300    0.344900
H     -0.673500    1.527700   -0.939500
H     -1.100100    1.261700    0.772400
H      1.883000    1.126100    1.975700
H      2.410100   -0.456100    2.552800
H      2.847600    0.078900    0.917100
H     -0.060600   -1.097500    3.120600
H     -1.269600   -1.054100    1.744100
H      1.444600   -2.559700    1.743700
H     -0.796000   -4.048200   -1.548300
