13
gdb_3981
C     -0.036000    1.497200    0.001200
C      0.016300   -0.009600    0.043600
N      0.079100   -0.703800    1.131400
O      0.091700    0.117700    2.243300
C     -0.002400   -0.756900   -1.162800
C     -0.020800   -1.347200   -2.219900
C     -0.043900   -2.026000   -3.487800
O     -0.008000   -3.228100   -3.623700
H      0.847300    1.917300    0.492200
H     -0.084500    1.856400   -1.026400
H     -0.908700    1.858200    0.554300
H      0.139500   -0.513200    2.971200
H     -0.098900   -1.345400   -4.361700
