15
gdb_4547
C     -0.032500    1.477200    0.009000
N      0.026400    0.033400   -0.024000
C      0.042700   -0.786700   -1.166700
C      0.104900   -2.067400   -0.687700
N      0.212500   -3.276400   -1.380300
N      0.124400   -2.075300    0.694500
C      0.078200   -0.808400    1.027900
O      0.073400   -0.324300    2.285000
H      0.831700    1.914900   -0.502200
H     -0.945900    1.842200   -0.473100
H     -0.028900    1.804200    1.049000
H      0.020700   -0.369900   -2.158500
H     -0.272600   -3.275000   -2.267400
H     -0.107100   -4.046900   -0.807500
H      0.124400   -1.094000    2.864700
