15
gdb_12464
N      0.014700    0.946400    1.082800
C      0.073900    0.128400    0.108800
O      1.286200   -0.318800   -0.337500
C      1.397000   -0.998900   -1.575500
O      0.811900   -2.259600   -1.556600
C     -0.529900   -2.289700   -2.000800
C     -1.456500   -1.310800   -1.352300
C     -1.192400   -0.320300   -0.494700
H      0.959700    1.170100    1.401900
H      0.986600   -0.379300   -2.386300
H      2.471400   -1.135600   -1.710900
H     -0.573800   -2.145800   -3.095800
H     -0.883700   -3.310400   -1.812200
H     -2.495000   -1.446300   -1.650500
H     -2.021300    0.270700   -0.121000
