20
gdb_6759
C     -0.008600    1.575900    0.132400
C     -0.006200    0.046500    0.166600
C     -1.365000   -0.551200   -0.252800
C     -1.386400   -2.009600   -0.234200
C     -1.364300   -3.214600   -0.203600
C     -1.382100   -4.680900   -0.213300
C     -2.738900   -5.233400    0.247800
O     -1.012200   -5.207700   -1.487800
H      0.962700    1.979000    0.433800
H     -0.226800    1.950800   -0.873800
H     -0.764800    1.988100    0.810000
H      0.771900   -0.345800   -0.497400
H      0.240300   -0.308700    1.173400
H     -2.152000   -0.163800    0.408600
H     -1.621100   -0.195800   -1.260300
H     -0.605200   -5.051200    0.467000
H     -3.538500   -4.880900   -0.411700
H     -2.715800   -6.326100    0.220500
H     -2.968300   -4.904500    1.265600
H     -1.560000   -4.767400   -2.146900
