18
gdb_6970
C     -0.038900    1.546000    0.017900
C      0.018800    0.016500   -0.044700
O     -1.283100   -0.514200   -0.270300
C      0.942600   -0.458700   -1.195000
C      2.248100   -0.763000   -0.504500
C      2.111700   -0.831400    0.819200
C      0.685600   -0.587400    1.243600
O      0.526300    0.177200    2.431200
H      0.964900    1.980400    0.087800
H     -0.515200    1.929000   -0.888500
H     -0.614500    1.879700    0.886700
H     -1.845700   -0.218600    0.454300
H      0.511800   -1.360400   -1.647900
H      1.036500    0.283700   -1.995600
H      3.168100   -0.942700   -1.050400
H      2.889200   -1.076500    1.534700
H      0.175300   -1.534600    1.462000
H      1.097500    0.949800    2.362800
