15
gdb_3494
C     -0.076000   -1.248800   -0.096100
C     -0.025800   -0.048700   -0.025400
C      0.007200    1.397900    0.031500
C      0.076600    2.130600    1.419600
C      1.555000    1.657800    1.532400
C      1.384000    2.154100    0.067300
C      0.606000    3.370500    0.644600
H     -0.116600   -2.308100   -0.155600
H     -0.720300    1.828600   -0.664400
H     -0.691100    2.106300    2.193600
H      2.206400    2.258000    2.172600
H      1.720400    0.588800    1.673800
H      2.131800    2.156900   -0.726300
H     -0.096400    3.873900   -0.025700
H      1.192700    4.086800    1.224300
