19
gdb_18723
C      0.008600    1.521700   -0.011200
C      0.045000   -0.000200    0.015600
O      0.658700   -0.425200   -1.192700
C      0.842200   -1.827000   -1.256500
C      1.923300   -2.300100   -0.278700
C      1.698700   -1.693500    1.099100
N      2.218800   -0.324500    1.290700
C      0.766700   -0.540600    1.240900
H      1.029200    1.912200    0.004400
H     -0.490700    1.871900   -0.918400
H     -0.532200    1.910200    0.857600
H     -0.987100   -0.397500    0.048000
H     -0.110200   -2.341200   -1.039900
H      1.117900   -2.056100   -2.290100
H      1.905800   -3.394300   -0.220100
H      2.910800   -2.001900   -0.644600
H      1.779600   -2.373200    1.944100
H      2.519200   -0.195100    2.253000
H      0.201500   -0.451300    2.167400
