14
gdb_13068
C      0.049600    1.535100   -0.176900
C      0.052200    0.087500   -0.038800
C      0.059200   -1.111200    0.078600
C      0.033200   -2.549900    0.208900
O      0.029300   -3.044100    1.580300
C     -1.230500   -3.729700    1.452200
C     -1.339500   -3.260600    0.000200
O     -2.111800   -3.376000   -0.895100
H      0.955400    1.890300   -0.679700
H     -0.813700    1.874300   -0.759500
H     -0.000500    2.019600    0.804200
H      0.838200   -3.021300   -0.372700
H     -1.148900   -4.816100    1.584300
H     -2.002900   -3.337500    2.126100
