14
gdb_14585
O     -0.103400   -0.061800    0.003500
C     -0.021400    1.145000    0.007400
C      1.216900    1.880200    0.000600
C      2.243200    2.517700   -0.006100
C      3.470000    3.297400   -0.013800
C      3.211900    4.827900   -0.002400
C      4.453600    5.588800   -0.010500
C      5.495900    6.186600   -0.017200
H     -0.927200    1.785200    0.016800
H      4.081700    3.025600    0.854400
H      4.064200    3.035700   -0.897200
H      2.600700    5.093600   -0.872300
H      2.618300    5.083500    0.882600
H      6.408200    6.730200   -0.022700
