20
gdb_12088
C     -0.162300    1.580500   -0.089100
C      0.011900    0.083900    0.074400
C      1.345900   -0.586700   -0.162700
C      0.747900   -0.578700    1.222500
C      1.408400    0.143100    2.365200
O      2.161400    1.284700    2.031800
C      0.748000    0.135800    3.723600
C      2.006700   -0.672800    3.476100
H      0.779000    2.117200    0.050900
H     -0.515400    1.814300   -1.099700
H     -0.900700    1.984500    0.614200
H     -0.853500   -0.481400   -0.264300
H      1.386900   -1.518600   -0.716100
H      2.195800    0.070000   -0.315500
H      0.305700   -1.517100    1.548200
H      1.556800    2.032300    1.989400
H      0.845700    1.031800    4.327300
H     -0.194400   -0.389100    3.838500
H      1.929500   -1.753400    3.425800
H      2.929500   -0.297700    3.902500
