22
gdb_6534
C      0.027900    1.512700   -0.303200
C     -0.040300    0.072000    0.221700
C     -1.434400   -0.542600    0.150500
C     -2.478400    0.181400    0.985600
C     -1.888600   -1.128400   -1.182500
C     -1.587200   -2.041100   -0.013000
C     -0.415500   -2.999200   -0.055500
O     -2.691200   -2.588600    0.672300
H      1.058500    1.881000   -0.289800
H     -0.336600    1.571600   -1.334500
H     -0.573800    2.196900    0.302000
H      0.668000   -0.535600   -0.349700
H      0.308900    0.048200    1.263100
H     -2.663900    1.187600    0.596300
H     -3.421900   -0.364000    0.995400
H     -2.142100    0.282900    2.024400
H     -2.931200   -1.003100   -1.457200
H     -1.194600   -1.110900   -2.018000
H      0.433400   -2.603600   -0.616100
H     -0.081100   -3.247800    0.957000
H     -0.718600   -3.933500   -0.545300
H     -3.032100   -3.315000    0.138800
