19
gdb_13090
C     -0.165700    1.575800   -0.188100
C     -0.003900    0.067600   -0.003400
C      1.079100   -0.574500   -0.915500
C      1.988300   -0.607100    0.335800
N      0.793400   -0.383400    1.168800
C      0.887600    0.382400    2.385700
C      1.404000   -0.482400    3.527600
O      2.124800   -0.094400    4.408800
H      0.801300    2.090000   -0.198000
H     -0.664900    1.779900   -1.141400
H     -0.777800    2.018000    0.605100
H     -0.991700   -0.409000   -0.038400
H      0.806200   -1.568300   -1.273300
H      1.421300    0.032200   -1.755400
H      2.530400   -1.535000    0.548000
H      2.707200    0.227900    0.365500
H      1.511200    1.290800    2.325700
H     -0.124500    0.698100    2.680700
H      1.038800   -1.533400    3.478200
