17
gdb_7845
C     -0.115200    1.460200   -0.060100
C      0.022100   -0.051100    0.049400
O      1.088800   -0.595000    0.273700
N     -1.136000   -0.750200   -0.133400
C     -1.161500   -2.176400   -0.159400
C     -1.948600   -2.940900    0.890800
C     -2.465500   -2.820000   -0.524000
O     -3.509600   -1.924800   -0.796200
H      0.348800    1.917900    0.816700
H      0.438600    1.803200   -0.938900
H     -1.150300    1.802500   -0.139500
H     -1.991100   -0.281800   -0.388600
H     -0.235000   -2.608700   -0.516800
H     -1.571800   -3.899300    1.230900
H     -2.450300   -2.343100    1.644400
H     -2.444600   -3.700300   -1.164300
H     -4.307500   -2.250100   -0.367300
