15
gdb_3048
O     -0.086300    0.070100    0.242200
C      0.060700    1.206800   -0.120100
C      1.417500    1.845400   -0.357500
O      1.208700    3.185900   -0.735700
C      2.389400    3.878600   -1.006400
C      3.017200    3.752300   -2.371100
C      2.284100    5.017000   -1.964800
H     -0.794000    1.891400   -0.315500
H      2.014400    1.764300    0.565900
H      1.949800    1.275900   -1.136300
H      3.051600    3.979800   -0.145700
H      4.098200    3.773800   -2.453400
H      2.517700    3.105100   -3.083600
H      1.309000    5.184200   -2.407400
H      2.855700    5.915900   -1.764800
