14
gdb_1507
C      0.047600    1.517500   -0.110900
C     -0.001400    0.007600    0.014500
O      0.651500   -0.549700   -1.141700
C      0.706700   -1.886000   -1.208500
N      0.229900   -2.671600   -0.335200
C      1.417400   -2.324800   -2.471100
O      1.582600   -3.485800   -2.738900
H      1.080900    1.873300   -0.151600
H     -0.468300    1.852000   -1.015300
H     -0.440800    1.975700    0.754000
H      0.511400   -0.351900    0.913000
H     -1.027500   -0.373300    0.054200
H      0.411200   -3.631700   -0.637000
H      1.769500   -1.500000   -3.121900
