16
gdb_18949
O     -0.037600   -0.116600   -0.293300
C      0.002000    1.059400   -0.026000
C      1.251300    1.884800   -0.004200
C      1.201700    3.300000   -0.645100
C      0.462300    3.947600    0.579400
C      1.502700    5.077900    0.700000
C      2.326600    3.838700    0.302000
C      1.447800    2.879500    1.174100
H     -0.930700    1.614500    0.229200
H      2.116700    1.267600   -0.264000
H      1.061900    3.556100   -1.696200
H     -0.615000    3.997000    0.736500
H      1.440300    5.885400   -0.036400
H      1.675500    5.483600    1.701900
H      3.399700    3.739000    0.133700
H      1.593100    2.648100    2.230200
