20
gdb_8703
C      0.729300   -0.523500    1.385800
C      0.160500    0.086800    0.100900
C      0.835500   -0.409000   -1.206900
O      2.240100   -0.158700   -1.182900
C      0.504300   -1.879800   -1.518200
C      1.216300   -2.426400   -2.759600
C      0.313600    0.506200   -2.314500
O     -0.756500    0.379100   -2.849700
H      0.598100   -1.609000    1.426000
H      1.796300   -0.300900    1.495900
H      0.224100   -0.100500    2.259000
H     -0.913600   -0.113400    0.024100
H      0.275200    1.176900    0.150600
H      2.633200   -0.721700   -0.508900
H      0.760800   -2.493300   -0.645800
H     -0.580600   -1.950300   -1.647600
H      0.895900   -1.899200   -3.663200
H      2.300400   -2.314400   -2.673700
H      0.990500   -3.487800   -2.896800
H      1.008300    1.339600   -2.560400
