15
gdb_5388
C     -0.017100    1.537000    0.010100
C     -0.015800   -0.003200    0.002500
C     -1.416700   -0.544700    0.012800
N     -1.997900   -0.758400    1.202200
C     -3.247300   -1.212000    1.142300
N     -3.942700   -1.461800    0.031900
C     -3.266100   -1.206700   -1.088800
N     -2.017800   -0.752800   -1.167600
H      1.007600    1.918300    0.002700
H     -0.534900    1.928600   -0.870500
H     -0.518900    1.919900    0.903600
H      0.491400   -0.368400   -0.894500
H      0.507800   -0.376900    0.886500
H     -3.748600   -1.399900    2.089900
H     -3.783200   -1.389900   -2.028700
