15
gdb_13831
N     -0.057500    1.284800    0.026300
C      0.027700   -0.062500    0.083600
O      1.059600   -0.711500    0.104200
C     -1.315900   -0.740600    0.110600
N     -2.433400   -0.132900   -0.053600
C     -3.469200   -1.181500    0.037000
C     -2.702900   -2.536200   -0.033600
N     -1.351500   -2.095500    0.322300
H      0.781600    1.832100   -0.060300
H     -0.968600    1.710000   -0.044000
H     -4.000100   -1.075300    0.992200
H     -4.208600   -1.067900   -0.760200
H     -3.084700   -3.281200    0.669100
H     -2.732400   -2.968300   -1.043900
H     -0.526400   -2.628100    0.090400
