10
gdb_928
O     -0.056300   -0.051500    0.003600
C      0.037900    1.139600    0.008800
O     -1.173400    1.896300    0.028900
C     -1.147800    3.230600    0.035700
N     -0.110900    3.985400    0.026100
C      1.100200    3.321600    0.006500
C      1.218000    1.973900   -0.002300
H     -2.150000    3.650300    0.051200
H      1.977900    3.960800   -0.001700
H      2.175800    1.470600   -0.017700
