17
gdb_18739
C     -0.505600    1.474700    0.055400
C      0.016900    0.047800   -0.002700
C      1.325700   -0.249300   -0.810900
C      1.948300   -0.891300    0.443700
O      2.709900    0.078700    1.231200
C      1.606100    0.361100    2.020700
N      1.489500    1.132000    3.003400
C      0.679300   -0.572200    1.278900
H      0.264700    2.170300    0.401500
H     -0.838500    1.802100   -0.935500
H     -1.355100    1.556900    0.741200
H     -0.780800   -0.623000   -0.334800
H      1.186100   -0.937900   -1.647500
H      1.878600    0.626100   -1.160100
H      2.460100   -1.851400    0.392600
H      2.372000    1.603300    3.211200
H      0.104800   -1.281800    1.870600
