22
gdb_14799
C     -0.039600    1.381900   -0.030100
O     -0.005500   -0.023100   -0.015200
C      0.665200   -0.545400    1.111200
C      0.646100   -2.065500    1.031800
C      1.353700   -2.730500    2.216700
C      1.335500   -4.259900    2.138700
C      2.038100   -4.923500    3.315200
O      1.959200   -6.330100    3.137600
H      0.972700    1.817500   -0.052800
H     -0.574500    1.688700   -0.932400
H     -0.564500    1.789800    0.849200
H      1.705500   -0.174600    1.143700
H      0.176800   -0.202300    2.041000
H     -0.397100   -2.399700    0.980300
H      1.118500   -2.372200    0.090800
H      2.393800   -2.379000    2.265600
H      0.880100   -2.406400    3.154000
H      0.301300   -4.623500    2.101500
H      1.816700   -4.596000    1.212000
H      3.087000   -4.585700    3.360500
H      1.557600   -4.613300    4.258200
H      2.402800   -6.752100    3.878900
