13
gdb_5208
C     -0.095100    1.454600    0.036500
C     -0.018200    0.003900    0.015700
C      0.042100   -1.201400   -0.000800
C      0.135400   -2.599800   -0.026000
C      1.141300   -3.484200   -0.289000
N      0.670000   -4.778700   -0.166800
C     -0.574200   -4.629700    0.158100
O     -0.986500   -3.350900    0.266400
H      0.599900    1.880000    0.769000
H      0.148100    1.880700   -0.943200
H     -1.104500    1.785800    0.303000
H      2.163000   -3.267700   -0.555500
H     -1.311200   -5.393800    0.350000
