12
gdb_3999
O     -0.059200    1.418800    0.010200
N      0.072000    0.046900    0.001400
C     -1.057300   -0.562800    0.009000
C     -1.039600   -2.081500    0.000500
C      0.297600   -2.670100   -0.015300
N      1.329600   -3.187100   -0.027800
C     -2.334600    0.061800    0.024700
C     -3.441300    0.534600    0.038000
H      0.858200    1.717100    0.003000
H     -1.580800   -2.453300    0.879200
H     -1.597200   -2.443700   -0.872000
H     -4.408900    0.974000    0.049700
