13
gdb_21705
N     -0.034600    1.354800    0.118300
C      0.052600   -0.000500    0.037800
N      1.184800   -0.601000    0.017000
C      1.187400   -1.984900   -0.004100
C      2.300700   -2.800400   -0.031600
N      1.785700   -4.053300   -0.048300
N      0.441800   -4.039600   -0.032000
N      0.076100   -2.790700   -0.005000
H      0.813700    1.882200   -0.020700
H     -0.898900    1.805000   -0.127500
H     -0.908600   -0.521300    0.029900
H      3.355500   -2.589400   -0.039500
H      2.267600   -4.937100   -0.068100
