17
gdb_17396
C      0.036400    1.512300   -0.172600
O      1.423300    1.555800    0.237600
C      1.429900    0.141700    0.509000
C      0.002600   -0.019000   -0.045900
C     -1.086600   -0.834300    0.725700
C     -1.296600   -1.675300   -0.538200
N     -1.685400   -0.718300   -1.603300
C     -0.250900   -0.907700   -1.265000
H     -0.612900    2.051200    0.529900
H     -0.115300    1.913000   -1.181200
H      2.227300   -0.382300   -0.034800
H      1.532600   -0.073200    1.582200
H     -0.653100   -1.401400    1.554200
H     -1.961400   -0.279500    1.075300
H     -1.570800   -2.720500   -0.606100
H     -1.865400   -1.265000   -2.445600
H      0.465000   -1.217400   -2.017800
