17
gdb_8163
C     -0.027200    1.553000    0.028700
C      0.030200    0.048500    0.030700
C      0.934800   -0.814600   -0.931500
C      0.567300   -1.905300    0.095200
C      0.651100   -0.822700    1.190400
O     -0.873900   -2.039500   -0.098000
C     -1.264400   -0.717300   -0.145200
N     -2.431700   -0.271100   -0.299600
H      0.968100    1.987200    0.163900
H     -0.442300    1.919800   -0.914700
H     -0.676700    1.913200    0.832100
H      0.602600   -0.961200   -1.961600
H      1.983700   -0.514200   -0.892300
H      1.017600   -2.893300    0.151600
H      1.673100   -0.523000    1.430300
H      0.060200   -0.976600    2.095900
H     -3.103900   -1.035200   -0.392300
