15
gdb_8376
O      0.044600    1.449100    0.259900
C      0.055500    0.064800    0.091600
C     -0.545100   -0.846900    1.161700
C     -1.265500   -0.573100   -0.116900
C     -2.617000    0.065300   -0.398300
C     -2.725700   -1.044800   -1.427000
N     -3.583100   -1.401200   -2.266500
O     -1.483900   -1.587500   -1.122800
H      0.720900    1.680000    0.905700
H      0.891700   -0.343400   -0.476200
H     -0.092200   -1.823300    1.297000
H     -0.939500   -0.383800    2.060800
H     -3.352800    0.014500    0.406000
H     -2.581900    1.075800   -0.807400
H     -3.274400   -2.223600   -2.787500
