19
gdb_6374
C      0.581800    0.741000   -0.627300
N     -0.299700   -0.233100    0.004300
C      0.269700   -0.741700    1.244300
C     -1.643500    0.292900    0.181200
C     -2.450300    0.324200   -1.110400
O     -3.274700    1.186000   -1.330800
C     -2.266300   -0.806900   -2.112100
O     -3.147200   -0.670900   -3.188300
H      1.552300    0.280500   -0.834000
H      0.157700    1.075800   -1.579000
H      0.750600    1.635700    0.000500
H      0.403400    0.039100    2.016200
H     -0.374700   -1.523300    1.657900
H      1.250200   -1.182800    1.040700
H     -2.192600   -0.376600    0.857300
H     -1.679400    1.300200    0.632600
H     -1.218800   -0.820100   -2.445600
H     -2.417900   -1.760300   -1.578300
H     -3.660000    0.130100   -2.993600
