16
gdb_17028
O     -0.062000    1.516600    0.006100
C      0.012500    0.115000    0.028000
C     -0.030200   -0.638100    1.400700
C     -1.504100   -0.154900    1.530500
C     -1.352900   -0.613300    0.048400
C     -0.589400   -1.867700    0.604500
C      0.278900   -2.646100   -0.256500
C      0.984200   -3.327100   -0.954200
H      0.831700    1.865400    0.074400
H      0.742800   -0.263300   -0.694600
H      0.737900   -0.672300    2.174700
H     -2.160800   -0.758000    2.162800
H     -1.646900    0.912100    1.687700
H     -2.110600   -0.616500   -0.735400
H     -1.222100   -2.523200    1.209300
H      1.607500   -3.923100   -1.573600
