14
gdb_3221
O      0.101200    1.374400    0.211100
C      0.053000   -0.012200    0.059000
C     -1.331800   -0.661900    0.014200
N     -1.969400   -0.050100   -1.183800
C     -1.081500   -1.235100   -1.336800
C      0.322800   -0.630300   -1.397100
O      0.594700    0.244800   -2.450100
H     -0.611400    1.729600   -0.335300
H      0.717000   -0.449900    0.807700
H     -1.938900   -1.041500    0.826700
H     -2.935000   -0.368300   -1.227600
H     -1.455600   -2.148500   -1.782500
H      1.120900   -1.375600   -1.372800
H     -0.197900    0.784900   -2.562100
