16
gdb_2019
O     -0.074100    1.417000    0.053000
C     -0.001800   -0.000900    0.001000
C     -1.411500   -0.527800    0.021300
C     -2.564000   -0.265000   -0.976300
N     -3.237000   -1.199400    0.047600
C     -1.914400   -1.987100   -0.016800
C     -2.507000   -0.338900    1.096800
H      0.822000    1.765400    0.043500
H      0.506700   -0.346900   -0.914200
H      0.555700   -0.409500    0.860100
H     -2.997800    0.737100   -1.006000
H     -2.488700   -0.700000   -1.977400
H     -1.789300   -2.553100   -0.944700
H     -1.739600   -2.617300    0.860300
H     -2.377600   -0.843800    2.058800
H     -2.936400    0.657700    1.221500
