16
gdb_13856
C      0.232400    0.868600   -1.013200
C      0.021400   -0.046400    0.169600
O      0.751400   -0.098000    1.128000
C     -1.213900   -0.968200    0.100300
O     -2.374500   -0.185400   -0.029600
C     -3.301800   -1.001600   -0.737500
C     -2.398800   -1.753900   -1.720500
O     -1.138200   -1.799400   -1.048700
H      1.118400    1.483300   -0.854300
H      0.347200    0.268700   -1.921500
H     -0.650700    1.499600   -1.151800
H     -1.240800   -1.588800    1.010400
H     -3.813500   -1.692000   -0.051800
H     -4.039100   -0.352700   -1.213600
H     -2.740800   -2.773500   -1.923500
H     -2.293300   -1.217000   -2.671300
