15
gdb_4431
C      0.102400    1.547300   -0.223700
C     -0.015200    0.073100   -0.062800
C     -1.077000   -0.735100    0.093300
C     -2.539900   -0.508400    0.170000
O     -0.645000   -2.050900    0.200300
C      0.732500   -2.080400    0.109200
O      1.402100   -3.075900    0.166300
N      1.108100   -0.767800   -0.051900
H      0.702100    1.993600    0.578900
H      0.579300    1.812100   -1.175300
H     -0.883900    2.014600   -0.203000
H     -2.767700    0.555600    0.075300
H     -3.066700   -1.044100   -0.628000
H     -2.946900   -0.862600    1.124000
H      2.069800   -0.493900   -0.147900
