21
gdb_1889
C     -0.162200    1.547800   -0.006000
C      0.061400    0.037000    0.014900
C      0.856200   -0.505000   -1.201600
C      1.627900   -1.755200   -0.693200
C      1.259000   -1.911400    0.804800
C      2.354400   -2.550400    1.656200
C      0.858300   -0.486800    1.220700
H      0.794400    2.083900   -0.012500
H     -0.721100    1.857200   -0.896100
H     -0.725700    1.882400    0.871800
H     -0.920700   -0.456600    0.030200
H      0.197400   -0.730800   -2.045400
H      1.558100    0.260000   -1.552900
H      1.390600   -2.658100   -1.263700
H      2.708900   -1.602100   -0.791300
H      0.359200   -2.539300    0.872600
H      3.272000   -1.950700    1.625700
H      2.048300   -2.638100    2.704300
H      2.603900   -3.555500    1.298600
H      1.760700    0.126100    1.364700
H      0.292100   -0.454800    2.157800
