18
gdb_13834
C      0.116400    1.572100   -0.243500
C     -0.127200    0.110300    0.090200
O     -0.415900   -0.244700    1.210400
C      0.037900   -0.875000   -1.063300
C      1.556500   -1.155600   -1.349100
C      1.593100   -2.644700   -1.591400
C      0.435300   -3.235200   -1.307200
C     -0.604300   -2.261900   -0.813000
H      1.060000    1.700300   -0.784600
H     -0.679300    1.932400   -0.906500
H      0.123400    2.169200    0.669100
H     -0.390200   -0.420200   -1.963000
H      1.927000   -0.573000   -2.200100
H      2.190200   -0.886700   -0.491700
H      2.494400   -3.149800   -1.921000
H      0.245000   -4.300700   -1.376900
H     -0.803900   -2.395600    0.257200
H     -1.565200   -2.366800   -1.329500
