20
gdb_10212
C     -0.064600    1.727300   -0.212800
C      0.145500    0.237700   -0.007400
O      0.517700   -0.338700   -1.250600
C      0.749400   -1.730200   -1.194000
C      0.747500   -2.281400   -2.627900
C     -0.593600   -2.076700   -3.335500
C      2.102500   -2.022300   -0.549900
O      2.402100   -3.067300   -0.035100
H      0.856200    2.200500   -0.565300
H     -0.847200    1.904600   -0.955900
H     -0.362300    2.202200    0.726600
H      0.925600    0.059700    0.750900
H     -0.776000   -0.240000    0.363100
H     -0.030400   -2.240500   -0.605700
H      1.548300   -1.785400   -3.190200
H      1.002100   -3.345300   -2.575000
H     -0.552000   -2.454800   -4.361200
H     -1.398600   -2.606700   -2.814800
H     -0.852900   -1.016000   -3.369300
H      2.820900   -1.172900   -0.636100
