15
gdb_14002
N     -0.038700   -1.173500    0.122700
C     -0.051600   -0.016100    0.087400
C     -0.014000    1.413800    0.035300
C      0.557200    2.215300    1.216000
C      1.334600    2.119600   -0.040100
C      2.696200    1.515100   -0.350600
C      2.799400    2.691600   -1.347300
O      1.515200    3.217800   -0.912900
H     -0.819000    1.884500   -0.518900
H      0.060100    3.154700    1.430500
H      0.898500    1.658500    2.081700
H      3.408600    1.547200    0.475300
H      2.678900    0.513300   -0.781500
H      3.604000    3.410400   -1.166900
H      2.781100    2.416300   -2.406700
