15
gdb_21160
C      0.181300    1.451200    0.123100
N     -0.210300    0.074000   -0.137700
C      0.491400   -0.668000   -1.061500
C      0.695000   -2.036000   -1.132000
N      0.252600   -2.970800   -0.167600
N      1.411700   -2.308700   -2.256400
N      1.678800   -1.208600   -2.890900
N      1.106600   -0.195100   -2.169200
H      1.242000    1.565500    0.394300
H     -0.018100    2.074200   -0.756200
H     -0.430800    1.842600    0.938000
H     -0.376500   -0.481200    0.692300
H     -0.568700   -3.476300   -0.489100
H      0.972500   -3.666500    0.001300
H      1.191800    0.751500   -2.498600
