20
gdb_8451
C     -0.055400    1.467300    0.061900
C     -0.007300   -0.019600    0.000600
C     -0.032200   -0.874900   -1.026700
C      0.051000   -2.265700   -0.365700
C      0.047400   -3.499800   -1.238400
C     -0.961400   -2.051200    0.818500
C      0.089800   -0.962400    1.217200
C      1.165400   -1.977600    0.705800
H      0.837900    1.878200    0.550700
H     -0.125600    1.906500   -0.937600
H     -0.915600    1.817500    0.647500
H     -0.095300   -0.679400   -2.089200
H      0.896800   -3.497100   -1.931200
H      0.110700   -4.412700   -0.637000
H     -0.868500   -3.558100   -1.837800
H     -1.968900   -1.712000    0.563800
H     -0.998000   -2.897000    1.514400
H      0.127300   -0.521000    2.213800
H      1.333500   -2.816400    1.390800
H      2.114700   -1.570800    0.347400
