20
gdb_5848
C     -0.114500    1.527500    0.105000
C     -0.002200    0.004300    0.039800
C      0.767700   -0.531100    1.258100
O     -1.335300   -0.505400    0.044800
C      0.691300   -0.477500   -1.257500
O      0.566900   -1.896500   -1.269600
C      0.059200    0.082800   -2.532700
O      0.596500   -0.681200   -3.615600
H      0.868400    1.999400    0.009100
H     -0.769600    1.911000   -0.681100
H     -0.542800    1.822700    1.067000
H      0.218100   -0.288900    2.171800
H      0.881100   -1.616000    1.193000
H      1.767100   -0.087500    1.323900
H     -1.246700   -1.436400   -0.201500
H      1.755600   -0.193800   -1.231900
H      0.664200   -2.151700   -2.197200
H     -1.030100   -0.030200   -2.467000
H      0.301200    1.146600   -2.651800
H      0.023900   -0.574500   -4.379700
