10
gdb_210
O      0.109500    1.354600   -0.067200
C      0.069300    0.004000   -0.075900
C     -0.025400   -0.812600   -1.173600
N     -0.028700   -2.093300   -0.639600
C      0.061600   -1.979500    0.706800
N      0.122800   -0.716300    1.082900
H      0.176700    1.612500    0.860100
H     -0.087600   -0.618300   -2.228900
H     -0.087600   -2.949400   -1.163600
H      0.078900   -2.835000    1.364300
