16
gdb_15964
N     -0.258700   -0.888000   -0.818200
C     -0.146900    0.168500   -0.362900
C      0.018500    1.523700    0.168100
N      0.155400    1.613500    1.641700
C      1.299500    2.557400    1.521700
C      1.410400    2.179000    0.043000
C      2.598300    1.621500   -0.673800
C      1.983200    2.932300   -1.113100
H     -0.774100    2.156000   -0.257600
H     -0.664200    1.975400    2.115400
H      1.038400    3.613000    1.679500
H      2.147700    2.301300    2.165400
H      3.553200    1.648100   -0.159100
H      2.447300    0.748300   -1.299900
H      1.422400    2.946800   -2.042300
H      2.520300    3.851600   -0.902200
