14
gdb_1208
C     -0.005000    1.511000   -0.020600
C     -0.020500   -0.002100    0.064800
O     -0.070200   -0.592900    1.118800
C      0.030400   -0.753100   -1.262500
C      0.009500   -2.275600   -1.059100
C      0.058100   -2.999300   -2.326300
N      0.097000   -3.556300   -3.338000
H      0.900000    1.855000   -0.533800
H     -0.857700    1.868800   -0.608600
H     -0.044400    1.938300    0.981600
H     -0.813900   -0.432100   -1.884900
H      0.929800   -0.446000   -1.810200
H      0.854800   -2.581200   -0.435100
H     -0.890700   -2.567300   -0.509800
