15
gdb_18139
C     -0.071300    1.536300   -0.108000
C      0.048900    0.036100    0.041100
C      1.312200   -0.733800   -0.160000
O      2.456900    0.012200    0.295200
C      1.978400   -0.069000    1.658700
C      1.959400    1.211600    2.374100
N      1.948400    2.199200    2.974000
C      0.665600   -0.714900    1.212700
H      0.881400    2.034000    0.079700
H     -0.381500    1.785500   -1.127900
H     -0.814200    1.946800    0.582200
H     -0.811300   -0.524000   -0.323700
H      1.495600   -1.524600   -0.877300
H      2.601700   -0.769900    2.227000
H      0.150000   -1.484600    1.769500
