17
gdb_20231
C     -0.035700    1.588400    0.020400
C      1.461300    2.029500    0.001500
C      2.228000    0.712700   -0.119200
C      1.335300   -0.357400   -0.786500
C      1.732600   -1.301700    0.393700
C      0.756800   -0.554400    1.217600
C      0.048600    0.057900    0.002500
N      2.198300   -0.106200    1.154500
H     -0.571800    1.955600    0.900900
H     -0.570100    1.961400   -0.859900
H      1.677400    2.690300   -0.844100
H      1.757200    2.558100    0.912700
H      3.258500    0.790200   -0.469300
H      1.318800   -0.565000   -1.854400
H      2.176300   -2.284300    0.477800
H      0.364000   -0.768200    2.203700
H     -0.861700   -0.474700   -0.277500
