19
gdb_19078
C     -0.075300    1.438300    0.006800
C      0.037300   -0.074500   -0.014800
C      0.690700   -0.656800   -1.239200
C      1.452100   -0.599600    0.065300
N      1.735500   -2.089400    0.068600
C      0.507800   -2.926200    0.033500
C     -0.716000   -2.844600    0.939200
C      0.895800   -2.180300   -1.190700
H      0.787700    1.907600   -0.477700
H     -0.974600    1.772800   -0.521500
H     -0.127500    1.814600    1.033800
H     -0.790500   -0.575400    0.463500
H      0.843900   -0.085100   -2.145500
H      2.275000    0.035000    0.370700
H      0.860100   -3.954700   -0.049600
H     -0.541900   -2.194400    1.799900
H     -1.608800   -2.493400    0.414800
H     -0.938800   -3.842200    1.327800
H      1.283800   -2.705200   -2.060400
