13
gdb_5044
N      0.041600    1.227100    0.619600
C      0.010800    0.037600    0.144700
C     -1.251700   -0.655000   -0.096400
C     -1.434800   -1.997600   -0.133400
N     -0.564700   -3.003000    0.214600
C      0.718800   -2.882700    0.225300
N      1.522600   -1.900100   -0.309200
C      1.209200   -0.663700   -0.399800
H      0.998800    1.591200    0.622900
H     -2.109600   -0.009700   -0.262900
H     -2.434300   -2.362600   -0.359300
H      1.284900   -3.730700    0.608700
H      1.911800   -0.017200   -0.936000
