18
gdb_12853
C     -0.202000    1.573400    0.181900
C      0.094300    0.098300    0.031700
C     -1.102600   -0.901700    0.151500
C     -0.372700   -1.642800    1.309900
C      0.841800   -0.681300    1.165300
O      1.997100   -1.213600    0.543500
C      1.727300   -1.217300   -0.842400
O      0.918800   -0.097300   -1.113200
H      0.728500    2.145000    0.246600
H     -0.771300    1.938900   -0.678900
H     -0.793100    1.759400    1.083800
H     -2.050100   -0.432400    0.426300
H     -1.259400   -1.491400   -0.754500
H     -0.871900   -1.572900    2.279200
H     -0.124500   -2.690100    1.124100
H      1.157200   -0.142300    2.060900
H      2.668500   -1.124700   -1.391400
H      1.212900   -2.150600   -1.134700
