15
gdb_16360
C     -0.278400    1.494800    0.030500
C      0.111800    0.034300    0.003600
O      1.369100   -0.190400   -0.729600
C      1.978000   -0.795200    0.351800
O      3.072700   -1.249300    0.415800
C      0.770900   -0.589800    1.237200
C      0.694200   -0.207400    2.666700
N      0.265000   -1.539200    2.217400
H      0.520800    2.102900    0.462900
H     -0.482400    1.855200   -0.981800
H     -1.186500    1.633700    0.627100
H     -0.672100   -0.590400   -0.438000
H      1.601200   -0.198100    3.263500
H     -0.056400    0.527200    2.947500
H     -0.750000   -1.589900    2.158600
