12
gdb_12661
O      0.173200    1.291200    0.461700
C      0.018600   -0.034600    0.055700
C     -1.443500   -0.461900   -0.157600
O     -1.399300   -1.514400   -1.154200
C     -0.279100   -1.444500   -1.915900
O     -0.058500   -2.139200   -2.859300
C      0.599800   -0.333100   -1.310500
O      1.509500    0.243900   -1.838600
H      0.933500    1.644700   -0.022000
H      0.488800   -0.740500    0.765000
H     -1.926100   -0.874500    0.727800
H     -2.028500    0.380600   -0.538500
