17
gdb_8656
C     -0.100500    1.533900    0.110300
C     -0.000900    0.014100   -0.040700
C      0.742800   -0.472700   -1.323500
C      2.214200    0.005900   -1.360600
C      0.753500   -2.007700   -1.269800
O      0.208400   -2.743900   -2.041300
C      0.032800   -0.011300   -2.521000
N     -0.520000    0.395200   -3.450100
H      0.881300    2.001300    0.227000
H     -0.594100    1.985100   -0.755200
H     -0.688600    1.779300    0.999100
H      0.521700   -0.415700    0.822700
H     -1.006900   -0.419000   -0.049800
H      2.742000   -0.347700   -0.469300
H      2.726100   -0.379200   -2.246000
H      2.267700    1.095400   -1.384600
H      1.336100   -2.391000   -0.400900
