16
gdb_13547
C      0.042900    1.554400   -0.243800
C      0.005000    0.067800    0.015900
N      1.278700   -0.669200   -0.022700
C      0.534500   -0.593700    1.239400
C      1.203200    0.178800    2.365800
O      0.275400    0.804900    3.233200
C      2.113700   -0.713300    3.116700
N      2.782100   -1.437200    3.720600
H      0.957500    2.008200    0.143300
H      0.009300    1.750100   -1.320500
H     -0.814900    2.050700    0.220600
H     -0.859400   -0.434800   -0.417700
H      1.175100   -1.583700   -0.452000
H      0.011800   -1.487600    1.579300
H      1.804300    0.982800    1.934700
H     -0.235100    0.119900    3.680100
