13
gdb_604
C     -0.130900    1.477800   -0.130000
N      0.014800    0.035200    0.021200
C      1.342600   -0.517800   -0.165000
C      0.732800   -0.471100    1.206900
C      1.271500    0.411300    2.205400
C      1.691600    1.134900    3.070000
H      0.740000    2.052800    0.216800
H     -0.297500    1.696100   -1.189200
H     -1.008100    1.810500    0.432700
H      1.400300   -1.465300   -0.694400
H      2.166700    0.169200   -0.350700
H      0.302600   -1.387700    1.604600
H      2.073000    1.771000    3.829900
