14
gdb_8104
O     -0.138400    1.408200   -0.019500
C     -0.124900    0.014800    0.010200
C     -0.467200   -0.806100    1.259200
C     -1.556700   -0.111200    2.022800
O     -1.707000    0.149600    3.182300
C     -2.485400   -0.011900    0.789600
C     -1.389600   -0.747000   -0.005200
O     -1.632800   -1.798100   -0.862000
H      0.580900    1.732500    0.533500
H      0.674600   -0.455500   -0.565200
H      0.209600   -1.569200    1.624500
H     -3.368300   -0.640900    0.934700
H     -2.776900    0.985000    0.454000
H     -1.747500   -1.447400   -1.752600
