11
gdb_20625
C     -0.003400    1.514400    0.116100
C      0.022500    0.033400   -0.008700
C     -0.006100   -0.782500   -1.104000
O      0.037500   -2.062500   -0.700700
N      0.095600   -2.020300    0.711500
N      0.085600   -0.816400    1.076200
C     -0.069900   -0.491700   -2.484400
N     -0.122200   -0.216300   -3.607400
H      0.893800    1.873100    0.629500
H     -0.053900    1.983700   -0.868300
H     -0.869400    1.836100    0.702400
