16
gdb_18862
O      0.055000    1.428600    0.074600
C     -0.023400    0.036100   -0.030900
C     -1.361800   -0.681700    0.014500
C     -2.037400   -0.749700   -1.379500
C     -1.586600    0.197700   -2.442000
C     -0.249300    0.178500   -2.517700
C      0.290300   -0.699400   -1.415800
C     -0.884300   -1.656800   -1.043000
H     -0.496600    1.792500   -0.628500
H      0.640100   -0.372100    0.734700
H     -1.953600   -0.866500    0.903200
H     -3.049000   -1.138500   -1.370100
H     -2.262500    0.806300   -3.030300
H      0.370500    0.801400   -3.150400
H      1.299800   -1.087700   -1.536700
H     -0.895100   -2.739200   -1.050600
