18
gdb_15864
C     -0.058900    1.562200   -0.149900
C      0.037900    0.053300   -0.005700
C      1.015000   -0.738600   -0.915100
C      1.302500   -1.686800    0.276100
O      2.579700   -2.206300    0.480000
C      0.753400   -0.571400    1.251500
C      1.832200    0.225500    1.799900
C      2.780400    0.840400    2.217500
H      0.923300    2.032000   -0.042500
H     -0.458100    1.828600   -1.134600
H     -0.721400    1.995000    0.607500
H     -0.961400   -0.390900   -0.065100
H      0.629200   -1.176000   -1.838600
H      1.903200   -0.141300   -1.147700
H      0.615700   -2.538000    0.276500
H      3.154800   -1.470800    0.729500
H      0.096700   -0.919100    2.054000
H      3.587600    1.405300    2.614600
