16
gdb_17934
O     -0.110500    1.498300    0.437000
C      0.054400    0.160200    0.154400
C     -0.894800   -0.982000   -0.055600
C     -0.397800   -1.209400   -1.529200
C      0.863200   -0.504000   -0.992300
C      1.826700   -1.305800   -0.492900
C      1.627600   -1.481100    1.010300
C      0.196100   -0.925600    1.131700
H     -0.437000    1.939500   -0.355400
H     -1.935600   -1.044500    0.253600
H     -0.260400   -2.228300   -1.901600
H     -1.036500   -0.644200   -2.218600
H      2.268100   -2.111900   -1.074000
H      1.725300   -2.549200    1.240600
H      2.307600   -0.947300    1.689400
H     -0.284400   -0.836700    2.104400
