11
gdb_163
C      0.006500    1.475600    0.095200
C      1.348400    0.788900   -0.070100
C      1.686300    0.042500    1.215700
O      0.391600   -0.619800    1.221100
C      0.068800   -0.012600   -0.032700
H     -0.277200    1.917600    1.046800
H     -0.336800    2.009700   -0.785400
H      2.030400    1.000700   -0.881900
H      2.490700   -0.692700    1.098400
H      1.857000    0.635200    2.122800
H     -0.452900   -0.611900   -0.770000
