15
gdb_11820
C     -0.033400    1.415200    0.071700
N     -0.013300   -0.021800    0.025800
C     -1.090800   -1.018300    0.049100
C      0.031000   -2.077100    0.065600
C      0.135800   -3.385800    0.707800
O      0.072000   -3.241000   -0.719200
C      1.035500   -0.915600    0.006600
O      2.228600   -0.772300   -0.022100
H      1.003400    1.760100    0.058000
H     -0.558600    1.838200   -0.793200
H     -0.517300    1.783000    0.985000
H     -1.726000   -0.974100    0.941300
H     -1.711900   -1.033500   -0.853200
H      1.098400   -3.709300    1.098900
H     -0.744100   -3.828500    1.171600
