18
gdb_12874
C     -0.094500    1.531700    0.084800
C      0.094200    0.034600   -0.003400
C      0.748200   -0.682500   -1.175200
C      1.663900    0.095700   -2.119400
C      2.811400    0.532600   -1.231100
C      2.671500    0.087600    0.019400
C      1.410900   -0.697400    0.190900
O      1.444500   -1.868300    0.954900
H      0.795100    2.074700   -0.243700
H     -0.936500    1.855100   -0.537700
H     -0.308800    1.840100    1.114400
H     -0.739900   -0.540000    0.396200
H      0.257100   -1.577400   -1.538100
H      2.012800   -0.529500   -2.951300
H      1.157500    0.956500   -2.576900
H      3.618400    1.162400   -1.589000
H      3.359000    0.263900    0.839400
H      1.228600   -1.637600    1.864400
