14
gdb_20144
O      0.004300    0.032300    0.188900
C     -0.014300    1.227100    0.041300
C     -1.199300    2.144500   -0.058400
C     -0.820800    3.499600    0.525000
C     -0.838300    3.315100   -0.963500
C      0.724100    3.337000   -0.984400
C      0.741500    3.521200    0.504100
C      1.141700    2.177000   -0.090000
H     -2.212100    1.771700   -0.000300
H     -1.473000    4.076000    1.165600
H     -1.506700    3.719500   -1.710200
H      1.360600    3.759700   -1.748600
H      1.394400    4.115500    1.127300
H      2.165700    1.832500   -0.059500
