13
gdb_2843
O      0.031800    1.375900   -0.368400
C      0.029500    0.139400    0.324100
C     -1.333700   -0.503300    0.269600
O     -1.699200   -1.051600   -1.001600
C     -1.534800   -1.959600    0.101400
C     -0.446900   -2.899700    0.041300
C      0.431500   -3.719600    0.009200
H     -0.201800    1.183600   -1.283600
H      0.779100   -0.557600   -0.073500
H      0.292300    0.366100    1.362900
H     -2.134500    0.058000    0.753500
H     -2.473100   -2.375800    0.467500
H      1.214200   -4.437100   -0.023900
