13
gdb_11938
O     -0.035600    1.437800    0.099500
C     -0.023600    0.071400    0.038600
C     -0.286700   -0.750000   -1.190000
C     -1.163700   -0.963300    0.030100
O     -0.492900   -1.788600    0.978700
C      0.565500   -0.800100    1.141300
C     -2.582400   -0.858300    0.045600
N     -3.735000   -0.751100    0.047700
H      0.285600    1.797700   -0.733500
H     -0.773500   -0.205200   -1.994200
H      0.377100   -1.554200   -1.497100
H      1.561600   -1.225400    0.981200
H      0.501300   -0.326700    2.126100
