16
gdb_8633
C     -0.099700    1.554300    0.091600
C      0.011300    0.032000    0.000200
C      0.747800   -0.488500   -1.278600
C      2.222500   -0.010600   -1.348300
C      0.726800   -1.963300   -1.250300
N      0.732100   -3.116100   -1.184100
C      0.029500   -0.031200   -2.483700
N     -0.527100    0.369200   -3.413100
H      0.878100    2.035900    0.179200
H     -0.610800    1.970400   -0.781500
H     -0.678800    1.824600    0.978700
H      0.555200   -0.369600    0.861400
H     -0.986000   -0.417300    0.016200
H      2.749200   -0.328900   -0.445500
H      2.723700   -0.438300   -2.218300
H      2.260500    1.077100   -1.423500
