17
gdb_9513
C     -0.085400    1.605500   -0.059700
C     -0.051600    0.081200   -0.069900
C     -1.437100   -0.537600    0.168500
O     -1.928300   -0.194600    1.447700
C      0.811600   -0.585200   -1.191300
N      1.709500   -1.060200   -0.129100
C      0.961200   -0.568600    0.905400
O      1.025900   -0.676500    2.107100
H      0.920500    2.031300   -0.125300
H     -0.672800    1.981600   -0.904900
H     -0.554600    1.958700    0.861200
H     -2.160900   -0.155900   -0.561200
H     -1.379400   -1.631200    0.035800
H     -1.242100   -0.432900    2.087500
H      0.312100   -1.389200   -1.742500
H      1.280000    0.109800   -1.894300
H      2.465100   -1.730000   -0.140300
