16
gdb_14376
C     -0.000600    1.484300   -0.185100
O      1.448300    1.521500    0.095500
C      1.273800    0.334100    0.886600
C      1.851600   -1.066100    1.213900
C      0.473700   -1.065600    2.015300
C      0.765600    0.404300    2.357600
O     -0.615400   -0.926100    1.047200
C      0.037500   -0.047500    0.128800
H     -0.558600    2.111300    0.516800
H     -0.209900    1.772300   -1.217300
H      1.978300   -1.767900    0.387800
H      2.693700   -1.104500    1.906900
H      0.232200   -1.834500    2.744400
H      1.579200    0.549100    3.070400
H     -0.097100    1.025600    2.599800
H      0.237600   -0.578900   -0.807300
