17
gdb_4341
C     -0.017200    1.517900    0.014700
C     -0.004100    0.008200   -0.003300
C     -0.014600   -0.690900   -1.213900
C      0.027200   -2.082300   -1.212400
C      0.077400   -2.793700   -0.020200
C      0.086000   -2.110100    1.202800
N      0.193900   -2.807600    2.409500
C      0.041600   -0.709900    1.190900
H      1.001800    1.923300   -0.015500
H     -0.551600    1.922200   -0.850100
H     -0.493000    1.905700    0.920400
H     -0.058000   -0.146800   -2.151800
H      0.014100   -2.623300   -2.153600
H      0.109200   -3.879300   -0.028900
H     -0.150200   -3.756600    2.377400
H     -0.169700   -2.315500    3.212800
H      0.046000   -0.174000    2.137200
