18
gdb_7991
C      0.177400    1.506500    0.062000
C     -0.068000   -0.000800   -0.062200
C      0.710700   -0.646000   -1.236200
N      1.921000   -1.112200   -0.590400
C      2.937400   -1.853800   -1.294800
C      1.730200   -1.270900    0.772500
O      2.511300   -1.762200    1.559700
N      0.465700   -0.766400    1.061900
H      1.249700    1.722000    0.105900
H     -0.250000    2.040200   -0.793500
H     -0.289700    1.903100    0.969600
H     -1.141300   -0.187200   -0.171700
H      0.144500   -1.479700   -1.681300
H      0.926500    0.077200   -2.030600
H      3.445100   -1.219700   -2.030400
H      3.662900   -2.200900   -0.556900
H      2.520300   -2.725600   -1.821000
H      0.325800   -0.441600    2.006500
