19
gdb_6852
C     -0.002000    1.522100    0.013200
C     -0.015300   -0.013900   -0.011300
C     -1.470600   -0.510200    0.056300
C      0.701900   -0.526800   -1.278800
C      1.090000   -1.989600   -1.115100
O      1.858600   -2.190000    0.079400
C      1.504400   -1.420600    1.137200
N      0.680500   -0.464800    1.205900
H      1.025500    1.898200    0.017200
H     -0.517300    1.931300   -0.862500
H     -0.498200    1.888500    0.915900
H     -2.060500   -0.086900   -0.763900
H     -1.531200   -1.601000   -0.002500
H     -1.923400   -0.206000    1.003800
H      0.072000   -0.408700   -2.167400
H      1.611200    0.063200   -1.442700
H      0.203200   -2.633800   -1.064000
H      1.717700   -2.342700   -1.936800
H      2.063800   -1.735100    2.017300
