15
gdb_4810
O      0.668300    0.275100    0.756200
C     -0.119000    0.298800   -0.434400
C     -1.499200   -0.227200   -0.213900
C     -2.733400    0.208100   -0.659500
C     -3.703600   -0.707100   -0.164500
O     -5.056800   -0.680200   -0.349400
C     -3.047700   -1.666800    0.573200
N     -1.704300   -1.361200    0.521700
H      0.199900    0.799400    1.415400
H     -0.181800    1.306600   -0.869300
H      0.441300   -0.322700   -1.144200
H     -2.914300    1.075100   -1.278600
H     -5.271600    0.076200   -0.902000
H     -3.425800   -2.510600    1.124500
H     -0.971300   -1.839300    1.016300
