15
gdb_11180
O     -0.008500    0.045900   -0.305400
C     -0.017100    1.223800   -0.070700
C     -1.258100    2.091300    0.156300
N     -0.711400    3.353000    0.654800
C      0.600400    3.556900   -0.002400
C      1.204700    2.139200    0.047300
C      0.494000    4.063900   -1.377500
C      0.359400    4.482700   -2.497200
H     -1.788600    2.166600   -0.808100
H     -1.935100    1.623600    0.877200
H     -1.329800    4.136800    0.482700
H      1.187600    4.264300    0.592100
H      1.666700    1.962700    1.025000
H      1.941100    1.930800   -0.728600
H      0.252700    4.855300   -3.486200
