10
gdb_3928
O     -0.090100   -0.048300    0.000200
C     -0.049500    1.148900    0.008800
N      1.146200    1.881800    0.000400
C      2.442200    1.399100   -0.018100
N      3.294100    2.379000   -0.020400
N      2.566200    3.571300   -0.003400
C      1.307900    3.255000    0.008400
H     -0.935000    1.806900    0.023400
H      2.663900    0.344700   -0.028400
H      0.477000    3.943500    0.022800
