14
gdb_9042
C      0.287200    1.546000   -0.066100
C     -0.014900    0.028000    0.034600
C      0.560400   -0.661400   -1.213100
O     -0.112600   -1.022800   -2.137400
C      0.566700   -0.551800    1.234500
C      1.101800   -1.046200    2.198800
C      1.693600   -1.631500    3.375600
O      2.867100   -1.901900    3.486500
H      1.364300    1.724300   -0.129800
H     -0.194600    1.958300   -0.956100
H     -0.093500    2.064600    0.816400
H     -1.098600   -0.129200    0.016000
H      1.666700   -0.768300   -1.202000
H      0.974100   -1.822000    4.197400
