18
gdb_13070
C     -0.132600    1.449800   -0.009200
C     -0.060000   -0.005400    0.001100
C      0.044800   -1.207700    0.008800
C      0.087500   -2.658500    0.012100
C      0.223800   -3.295100    1.436700
C     -1.320200   -3.420300    1.508100
C     -1.361800   -3.283400   -0.037900
O     -2.387700   -2.574500   -0.660400
H      0.856700    1.894800    0.144200
H     -0.518800    1.823700   -0.963800
H     -0.789400    1.823900    0.783800
H      0.785300   -3.022200   -0.747800
H      0.718700   -4.267800    1.380900
H      0.718200   -2.686200    2.193900
H     -1.749900   -4.321100    1.951500
H     -1.769700   -2.542000    1.980600
H     -1.319800   -4.265900   -0.517500
H     -2.249100   -1.640000   -0.454700
