16
gdb_12770
C     -0.025000    1.367000    0.054500
N     -0.018000   -0.087700    0.064300
C     -1.095100   -0.701700   -0.146800
N     -2.472200   -0.312400   -0.345500
C     -2.890100   -1.703400    0.016700
C     -2.401400   -2.602400   -1.077900
C     -1.414700   -2.159800   -0.027700
O     -0.647300   -3.070400    0.650900
H      0.834100    1.722700   -0.523100
H     -0.933500    1.812000   -0.374200
H      0.101000    1.746500    1.076300
H     -2.788400    0.406900    0.297000
H     -3.702000   -1.901000    0.702300
H     -2.668800   -3.649000   -0.961800
H     -2.352800   -2.239600   -2.101400
H     -0.124000   -2.575000    1.293600
