18
gdb_13590
C     -0.234300    1.523300    0.068800
C      0.008300    0.031400    0.085300
C      1.338400   -0.557600   -0.233400
C      0.819900   -0.664500    1.194300
C      1.483500    0.120200    2.256400
O      2.120700    1.141400    2.059600
C      1.355500   -0.392800    3.686300
O      2.014100    0.443300    4.586700
H      0.638200    2.073000    0.425300
H     -0.456300    1.852000   -0.952300
H     -1.089600    1.792100    0.697900
H     -0.848500   -0.562800   -0.222300
H      1.396300   -1.474000   -0.809700
H      2.167200    0.130000   -0.365100
H      0.437300   -1.627700    1.516700
H      0.281600   -0.479400    3.924800
H      1.759300   -1.419700    3.717200
H      2.395600    1.145800    4.034100
