15
gdb_6003
C      0.024200    1.449800   -0.322600
C      0.064300   -0.010000    0.063100
O      1.059900   -0.584300    0.421000
C     -1.297800   -0.783200    0.033300
C     -1.715700   -1.041200    1.490000
O     -2.344900   -0.040900   -0.571000
C     -1.098400   -2.057500   -0.684000
N     -0.979100   -3.026700   -1.301600
H      0.994800    1.900800   -0.115200
H     -0.203000    1.549300   -1.390200
H     -0.773100    1.974100    0.211200
H     -1.884900   -0.082500    1.987600
H     -2.644000   -1.615200    1.508400
H     -0.929400   -1.587900    2.012000
H     -2.247400   -0.078000   -1.529100
