16
gdb_21942
O     -0.090300    1.454700    0.089000
C      0.029300    0.045800   -0.003700
C     -1.390300   -0.531000   -0.038300
C     -1.407500   -2.023900   -0.117600
C     -1.373100   -2.897500   -1.189600
C     -1.364900   -4.185000   -0.613400
N     -1.392300   -4.135100    0.715300
N     -1.413300   -2.815700    0.988300
H      0.792900    1.834900    0.081800
H      0.568200   -0.260000   -0.913200
H      0.576400   -0.372300    0.856300
H     -1.924800   -0.184700    0.854200
H     -1.914000   -0.108000   -0.900600
H     -1.362500   -2.633700   -2.235100
H     -1.345800   -5.143700   -1.110900
H     -1.452700   -2.518500    1.949100
