16
gdb_8101
C      0.045400    1.598100    0.039900
C      0.064600    0.086700    0.062500
C      1.301700   -0.780200   -0.269400
C      2.497000   -0.176500    0.408200
O      3.621700    0.102400    0.147400
O      1.867900   -0.057300    1.644000
C      0.689500   -0.752200    1.120300
C      0.088100   -1.800500    1.993000
H      0.917200    2.015300    0.547700
H      0.030900    1.971600   -0.988400
H     -0.849800    1.973000    0.547100
H     -0.828800   -0.380100   -0.352000
H      1.310300   -1.531400   -1.046200
H     -0.345000   -1.350300    2.892500
H     -0.709200   -2.325000    1.459100
H      0.842800   -2.528700    2.303900
