19
gdb_7817
C      0.010900    1.569400   -0.021300
C      0.060900    0.040600   -0.007500
C      0.726100   -0.535700   -1.263200
C      0.967000   -2.022200   -1.050600
O      1.726500   -2.256100    0.141500
C      1.478800   -1.424200    1.194700
C      2.239000   -1.882400    2.405200
N      0.732500   -0.399000    1.217900
H      1.023300    1.985400   -0.058300
H     -0.545700    1.936600   -0.890000
H     -0.470400    1.938600    0.887900
H     -0.975200   -0.328400    0.037700
H      0.106000   -0.379400   -2.152200
H      1.685100   -0.032100   -1.436400
H      0.013600   -2.561700   -0.968000
H      1.543200   -2.473200   -1.862500
H      3.310500   -1.923600    2.184300
H      2.058500   -1.196100    3.231300
H      1.929800   -2.893700    2.688600
