14
gdb_21
C     -0.032200    1.540200    0.010700
C      0.033800    0.007500    0.001800
C      0.713800   -0.508600   -1.273000
C      0.738500   -0.522200    1.257500
H      0.975200    1.974100    0.005300
H     -0.562000    1.922300   -0.868400
H     -0.548200    1.912700    0.902100
H     -0.997500   -0.373100    0.009800
H      1.750700   -0.155900   -1.332700
H      0.734500   -1.603300   -1.299400
H      0.193700   -0.160900   -2.172000
H      0.236100   -0.183800    2.170100
H      0.759600   -1.617100    1.272300
H      1.776400   -0.169900    1.300500
