17
gdb_19663
O      0.042200    1.498900   -0.081900
C      0.014300    0.100400    0.021100
C      0.121400   -0.609300    1.401100
C     -0.915900    0.166900    2.235600
C     -2.109100   -0.311200    1.382700
C     -1.979100   -1.831700    1.580000
N     -0.710400   -1.756200    0.773900
C     -1.346900   -0.575000    0.021800
H      0.960200    1.783900   -0.127200
H      0.662300   -0.388900   -0.715900
H      1.074400   -0.890400    1.847800
H     -0.986700   -0.154200    3.278100
H     -0.741900    1.243200    2.194600
H     -3.053100    0.230300    1.447700
H     -1.885300   -2.226100    2.597600
H     -2.704700   -2.426500    1.017500
H     -1.928000   -0.785500   -0.876400
