16
gdb_16550
C     -0.021100    1.531900    0.012700
C      1.388700    2.084200   -0.018500
C      2.451600    1.285100   -0.120400
C      2.207000   -0.215700   -0.200400
O      0.998800   -0.430500   -0.935300
C     -0.006600   -0.018400   -0.005900
C      0.512200   -0.579600    1.312600
C      1.830500   -0.711400    1.199200
H     -0.553400    1.901100    0.900800
H     -0.581400    1.903500   -0.855300
H      1.502600    3.163100    0.050000
H      3.467900    1.666000   -0.117700
H      3.016700   -0.758400   -0.693500
H     -0.967400   -0.426900   -0.330200
H     -0.100200   -0.743900    2.189500
H      2.543900   -1.002000    1.958900
