20
gdb_11450
C     -0.029700    1.511600    0.019000
C      0.037200    0.017800   -0.023400
C     -0.026900   -0.768100   -1.100500
C      0.030900   -2.242500   -0.771100
C      1.009900   -3.050100   -1.634100
O      0.629700   -3.123200   -2.999300
C      0.427400   -2.237800    0.731200
C      0.135100   -0.807000    1.243900
H      0.866700    1.935200    0.490000
H     -0.125100    1.943300   -0.981100
H     -0.883400    1.852300    0.619300
H     -0.158100   -0.396900   -2.113300
H     -0.961200   -2.695200   -0.916700
H      2.024400   -2.633700   -1.522000
H      1.042100   -4.086800   -1.280300
H      0.714800   -2.241800   -3.374900
H     -0.092300   -3.010100    1.303600
H      1.500800   -2.444400    0.818300
H      0.908400   -0.437100    1.928500
H     -0.811100   -0.755300    1.801900
