14
gdb_20427
C     -0.074700    1.351300   -0.239200
C      1.311600    0.886200    0.043000
N      0.196700   -0.051000    0.098000
C     -0.204300   -0.538200    1.341900
N      0.640700   -0.757800    2.352000
N     -0.147100   -1.286300    3.288500
N     -1.426400   -1.426200    2.980800
C     -1.493400   -0.956300    1.736400
H     -0.560500    1.963800    0.516400
H     -0.402600    1.525100   -1.259400
H      2.008900    0.723200   -0.772800
H      1.760900    1.179800    0.987000
H      0.218800   -1.579400    4.178900
H     -2.421900   -0.937000    1.189800
