11
gdb_892
N      0.118200    1.419300    0.153700
C     -0.013900    0.038100    0.016100
C     -1.069100   -0.788300   -0.047600
O     -0.626900   -2.107800   -0.057100
C      0.746000   -2.110500   -0.008100
O      1.433700   -3.093800    0.015100
N      1.119600   -0.777300    0.004000
H      0.643400    1.841600   -0.606000
H     -0.782300    1.875900    0.224700
H     -2.130600   -0.625400   -0.088200
H      2.055200   -0.487000    0.230000
