12
gdb_4380
O      0.129700    1.306400   -0.017200
C      0.084700   -0.037300   -0.026600
C     -0.044300   -0.717400   -1.242300
N     -0.090200   -2.046400   -1.268100
C     -0.010500   -2.703900   -0.114600
C      0.118200   -2.005200    1.090600
O      0.197500   -2.684200    2.248300
N      0.165900   -0.676700    1.136900
H      0.219800    1.578800    0.906100
H     -0.108500   -0.173500   -2.178100
H     -0.047200   -3.787400   -0.126400
H      0.281000   -2.028800    2.954200
