11
gdb_206
N      0.010300    1.404200    0.168500
C     -0.042100    0.011300    0.055300
C     -1.137300   -0.820300    0.029600
N     -0.605500   -2.101200   -0.019800
C      0.743300   -1.980600   -0.017900
N      1.120300   -0.719300    0.023800
H      0.920600    1.745600   -0.112600
H     -0.715700    1.878900   -0.351100
H     -2.198000   -0.639600    0.050300
H     -1.130600   -2.957900   -0.052700
H      1.403100   -2.834400   -0.050400
