20
gdb_6605
C     -0.016800    1.342100    0.013900
O      0.039200   -0.068600   -0.063700
C      0.678200   -0.547500   -1.184900
C      2.165700   -0.346800   -1.619700
C      1.524900   -1.309500   -2.668600
C      2.203500   -1.931600   -3.857400
C      0.852500   -2.052300   -1.468300
C      0.282500   -0.364200   -2.685500
H      0.987800    1.787500    0.043600
H     -0.565100    1.774200   -0.835300
H     -0.542200    1.590900    0.938400
H      2.455000    0.642900   -1.984900
H      2.929000   -0.776500   -0.964600
H      3.051100   -2.552500   -3.547500
H      1.510500   -2.567400   -4.419100
H      2.583100   -1.164400   -4.541400
H      1.518700   -2.602000   -0.797400
H     -0.057800   -2.616600   -1.689700
H     -0.666000   -0.809700   -2.999200
H      0.432800    0.624200   -3.129400
