11
gdb_3884
N     -0.100400    1.426500   -0.112300
C     -0.008200    0.040800   -0.052200
N     -1.058200   -0.773000    0.011600
N     -0.511100   -1.992100   -0.012500
N      0.819600   -2.037600   -0.098900
C      1.156300   -0.758200   -0.119200
O      2.425200   -0.299300   -0.177400
H      0.679600    1.891700    0.332200
H     -0.981200    1.769500    0.247300
H     -1.072600   -2.823900   -0.041100
H      3.013300   -1.063600   -0.198800
