19
gdb_17579
C     -0.013100    1.517300    0.057200
C     -0.023300    0.016000    0.019600
C      1.168400   -0.834500   -0.356600
C      0.590900   -0.987900    1.031900
C      1.346700   -0.705500    2.298500
C     -0.677600   -1.806200    0.941000
N     -1.805600   -0.927500    1.355600
C     -1.266500   -0.843600   -0.029600
H      0.956000    1.902200    0.392000
H     -0.208200    1.944700   -0.933900
H     -0.780200    1.888700    0.744100
H      1.074300   -1.631800   -1.090200
H      2.116100   -0.304600   -0.406100
H      2.036600    0.135700    2.173200
H      0.655300   -0.458000    3.110300
H      1.942800   -1.571400    2.611500
H     -0.779100   -2.885600    0.970100
H     -2.655200   -1.493800    1.309500
H     -1.903700   -1.047500   -0.883200
