21
gdb_13730
C      0.578400    1.642200   -0.295800
O      0.698400    0.265900   -0.034700
C     -0.207900   -0.515000   -0.781500
C      0.008800   -1.977200   -0.408300
N     -0.916200   -2.806400   -1.168600
C     -0.426500   -3.425500   -2.398600
C     -0.736900   -4.259000   -1.202100
C      0.352000   -4.978000   -0.435700
H      0.778400    1.877700   -1.353700
H     -0.426300    2.020500   -0.047600
H      1.313300    2.160600    0.325300
H     -1.250100   -0.227000   -0.570000
H     -0.045200   -0.373500   -1.864100
H      1.070200   -2.223100   -0.569400
H     -0.197900   -2.104000    0.660300
H     -1.096200   -3.393800   -3.254400
H      0.628000   -3.295400   -2.644200
H     -1.689600   -4.788200   -1.198900
H      1.321100   -4.480700   -0.518500
H      0.100600   -5.058000    0.627800
H      0.467600   -5.995700   -0.823500
