16
gdb_7662
C     -0.064100    1.543400   -0.073700
C     -0.019100    0.028300   -0.076800
O     -1.235300   -0.521500   -0.568600
C      1.256800   -0.684000   -0.611700
O      1.969900   -0.187500    0.581200
C      0.693900   -0.695800    1.120200
C      0.920600   -1.966700    0.229200
O     -0.063300   -2.881600   -0.093500
H      0.887400    1.952700    0.265600
H     -0.282400    1.917400   -1.078800
H     -0.853900    1.903400    0.598200
H     -1.969100   -0.072600   -0.135500
H      1.751400   -0.573800   -1.577900
H      0.528600   -0.598900    2.194800
H      1.825200   -2.503700    0.518400
H     -0.839600   -2.372000   -0.366800
