15
gdb_2987
C      0.115200    1.542700    0.014000
C     -0.031400    0.015000    0.006100
C      0.625700   -0.586400   -1.234500
O      0.270700   -1.611700   -1.755800
C      0.585500   -0.602600    1.254800
C      0.980300   -2.011300    1.346400
O      1.963900   -0.982000    1.169300
H      1.171100    1.831600    0.042500
H     -0.335800    1.990000   -0.877100
H     -0.375000    1.975900    0.890600
H     -1.090600   -0.268200   -0.022100
H      1.481800   -0.001900   -1.637500
H      0.324800   -0.087500    2.181700
H      0.992700   -2.498000    2.320100
H      0.832100   -2.665100    0.490100
