20
gdb_13506
C     -0.160500    1.532500    0.138000
C     -0.058600    0.017200   -0.012000
O      0.447500   -0.372000   -1.287900
C      0.804200   -0.594900    1.089200
O      0.289900   -0.321700    2.412300
C      0.293600   -1.723800    2.757300
C      0.771400   -2.128200    1.343700
C     -0.165800   -2.998500    0.516000
H      0.830500    1.997800    0.054900
H     -0.803100    1.951800   -0.640800
H     -0.569300    1.789600    1.118800
H     -1.063200   -0.415300    0.037500
H      1.286100    0.084600   -1.420100
H      1.828800   -0.199300    0.982100
H      0.988800   -1.939300    3.578300
H     -0.707300   -2.076100    3.038500
H      1.773700   -2.563900    1.341300
H     -1.203200   -2.655000    0.582500
H      0.122200   -2.989900   -0.538400
H     -0.140200   -4.033000    0.874600
