14
gdb_7686
C      0.032800    1.561400   -0.016900
C      0.087100    0.054200   -0.017500
O     -0.996600   -0.581100   -0.623400
C      1.323500   -0.745200   -0.188800
O      2.460100   -0.039100    0.359300
C      1.926100   -0.159700    1.649600
O      2.442000    0.162500    2.668400
C      0.656700   -0.794900    1.171700
H      0.953600    1.997400    0.372300
H     -0.118700    1.919900   -1.039600
H     -0.801500    1.915000    0.599600
H     -1.805000   -0.277700   -0.194800
H      1.505900   -1.518400   -0.921700
H      0.061000   -1.552700    1.657700
