18
gdb_16020
C      0.000500    1.498600   -0.034900
C      1.314400    0.735400   -0.040200
C     -0.010000    0.010300    0.038700
C     -0.420100   -0.746800    1.286100
C      0.021200   -2.207200    1.135600
O     -0.446200   -2.736700   -0.099600
C      0.008100   -1.968900   -1.180300
O     -0.451600   -0.637700   -1.133100
H     -0.272600    2.059400    0.852500
H     -0.321700    1.938400   -0.971700
H      1.851400    0.684400   -0.980400
H      1.942300    0.777900    0.843400
H      0.024600   -0.300100    2.181300
H     -1.510600   -0.709000    1.389500
H      1.121200   -2.275000    1.178900
H     -0.393400   -2.841400    1.923100
H      1.113700   -1.978300   -1.210300
H     -0.403400   -2.414100   -2.088000
