14
gdb_1222
C      0.018300    1.229600    0.165700
C     -0.289700   -0.250600    0.064200
O      0.474900   -1.113000    0.419100
C     -1.668900   -0.597000   -0.510100
O     -1.792000   -1.938300   -0.912900
C     -1.845600   -2.870800    0.068500
N     -1.912700   -4.089900   -0.240900
H      0.897600    1.383200    0.791800
H      0.217800    1.628600   -0.836100
H     -0.833800    1.787700    0.568600
H     -2.425600   -0.321700    0.243300
H     -1.868800    0.013900   -1.395800
H     -1.846700   -2.446000    1.079500
H     -1.965400   -4.659100    0.601000
