10
gdb_1820
N     -0.052600    1.284600    0.009500
C     -0.030800    0.023300    0.003300
O      1.111900   -0.754700   -0.007200
C      0.737700   -2.099800   -0.011300
O      1.540000   -2.981900   -0.020400
C     -0.746300   -2.136300   -0.002700
C     -1.193700   -0.877800    0.006000
H      0.894600    1.667600    0.005600
H     -1.296700   -3.065000   -0.003900
H     -2.208100   -0.507400    0.013900
