16
gdb_9232
N     -0.207800    0.623000   -0.986100
C     -0.228700   -0.307100    0.023600
C      1.134000   -0.913700    0.325100
O      1.922300   -1.113900   -0.842900
N     -1.214500   -0.656000    0.761800
C     -2.495700    0.023000    0.562600
C     -3.108900   -0.176500   -0.756500
C     -3.581000   -0.336300   -1.852100
H      0.608400    0.570300   -1.579100
H     -1.076700    0.815900   -1.462700
H      1.704800   -0.215500    0.947600
H      0.978700   -1.832300    0.899000
H      1.538400   -1.849600   -1.331700
H     -3.190300   -0.344600    1.326000
H     -2.392600    1.107300    0.734700
H     -4.022000   -0.493500   -2.805400
