12
gdb_3703
C     -0.067200    1.540500   -0.062200
C     -0.019300    0.051200    0.000700
N     -0.138800   -0.734900   -1.072200
N     -0.042600   -1.962700   -0.586900
N      0.133100   -2.066500    0.734600
C      0.149400   -0.796900    1.117000
O      0.306200   -0.405300    2.396300
H      0.858900    1.985400    0.316900
H     -0.210300    1.864300   -1.094900
H     -0.887600    1.938900    0.544200
H     -0.098200   -2.774800   -1.176900
H      0.397700   -1.199100    2.937300
