20
gdb_11136
C     -0.857600    1.491600    0.077000
O     -0.292500    0.275700    0.511900
C     -0.971900   -0.852500    0.032100
C     -0.750400   -1.288100   -1.448500
C     -0.592900   -2.742000   -0.949000
C     -0.360300   -2.191300    0.490800
O     -1.821200   -3.419800   -1.110600
C     -1.792500   -4.747100   -0.639500
H     -0.272300    2.301000    0.520200
H     -0.827100    1.592800   -1.018500
H     -1.905600    1.591500    0.401200
H     -2.044300   -0.786000    0.267600
H     -1.550800   -1.124200   -2.172200
H      0.192400   -0.887300   -1.830500
H      0.224400   -3.336000   -1.381600
H      0.703500   -2.062400    0.707800
H     -0.839600   -2.717600    1.318900
H     -2.777400   -5.180800   -0.829500
H     -1.032300   -5.346500   -1.165400
H     -1.585100   -4.804200    0.439600
