14
gdb_4975
C     -0.046300    1.532300   -0.043400
C     -0.007400    0.032200   -0.028700
N     -0.087400   -0.637300   -1.171300
C     -0.049300   -1.978000   -1.121800
C      0.069500   -2.656600    0.078000
N      0.152000   -2.003100    1.246000
C      0.113700   -0.685100    1.184900
O      0.194200    0.012200    2.336600
H      0.865900    1.953900    0.393000
H     -0.150600    1.883400   -1.070800
H     -0.881400    1.910200    0.556500
H     -0.116000   -2.509400   -2.066000
H      0.100100   -3.741600    0.117900
H      0.270600   -0.642100    3.045600
