14
gdb_11276
C      0.048900    1.527900    0.034200
C     -0.003200    0.001900   -0.004800
C      0.779900   -0.632400   -1.190400
O      1.730900   -1.527800   -0.558000
C      1.528300   -1.368200    0.771100
N      0.628200   -0.582300    1.197200
C      2.393000   -2.143200    1.618400
N      3.088900   -2.766500    2.297400
H      1.085600    1.878500    0.058200
H     -0.438700    1.949900   -0.850500
H     -0.460800    1.903600    0.924400
H     -1.051300   -0.318700   -0.013300
H      0.159300   -1.225200   -1.865500
H      1.345900    0.103000   -1.769800
