17
gdb_5941
C      0.023100    1.552200    0.065500
C     -0.005600    0.019000    0.004300
O      0.635100   -0.545400    1.137900
C     -1.452900   -0.500100   -0.046800
O     -2.044000   -0.152300    1.199300
C      0.755300   -0.524300   -1.223800
C      2.137500   -0.057300   -1.299900
N      3.227800    0.315900   -1.381100
H      1.050900    1.902000    0.182900
H     -0.397600    1.996300   -0.843200
H     -0.567700    1.898300    0.916900
H      0.019100   -0.428900    1.872800
H     -1.998500   -0.047200   -0.888200
H     -1.439100   -1.590600   -0.184200
H     -2.853700   -0.657100    1.312400
H      0.762300   -1.618200   -1.177800
H      0.238800   -0.230600   -2.144400
