14
gdb_18867
O      0.167100    1.404700   -0.232900
C      0.031900    0.067500    0.013300
C     -1.347800   -0.739800   -0.079900
C     -1.778600   -1.380100   -1.408000
C     -1.183700   -0.974300   -2.761500
N      0.126700   -0.424500   -2.322700
C      0.286700   -0.889900   -1.143300
N     -0.648100   -1.934300   -0.650900
H      0.072200    1.505000   -1.194500
H      0.461100   -0.168000    0.990100
H     -1.975700   -0.864100    0.801100
H     -2.712300   -1.937200   -1.369400
H     -1.118000   -1.851300   -3.420000
H     -1.721000   -0.185900   -3.296800
