18
gdb_11719
C     -0.138100    1.569400    0.072000
C      0.082900    0.062600    0.024600
C      1.167200   -0.518900   -0.947900
C      1.827300   -1.242600    0.225900
C      2.233000   -0.256700    1.301000
C      0.792500   -0.611300    1.213300
C      2.275000   -2.635600    0.233400
O      2.304200   -3.355900   -0.738000
H      0.795100    2.111100    0.258300
H     -0.545800    1.930600   -0.878300
H     -0.844900    1.840300    0.863900
H     -0.871500   -0.439800   -0.157800
H      0.763400   -1.209100   -1.689600
H      1.800100    0.215900   -1.455600
H      2.765900   -0.684600    2.145200
H      2.599800    0.718300    0.991500
H      0.292300   -1.119000    2.030100
H      2.582400   -3.009400    1.239200
