18
gdb_12126
C     -0.025000    1.517800    0.066100
C      0.017100    0.019700   -0.013000
C     -0.829800   -0.890500    0.836600
C      0.674300   -0.982700    0.924100
C      1.339000   -1.676600   -0.304200
O      2.678700   -2.021000   -0.290200
C      0.369300   -2.190700   -1.331100
C      0.668300   -0.703400   -1.235600
H      0.945000    1.957800   -0.194000
H     -0.771700    1.933600   -0.622300
H     -0.283100    1.851100    1.076600
H     -1.290700   -0.395100    1.687500
H     -1.442100   -1.688200    0.430000
H      1.226500   -0.785400    1.834900
H      2.755400   -2.910100    0.075600
H      0.869200   -2.659100   -2.174400
H     -0.598500   -2.623300   -1.100600
H      1.091800   -0.159100   -2.070100
