15
gdb_16845
N     -0.066500    1.281200    0.577600
C      0.026000    0.137000    0.027500
O     -1.151800   -0.426700   -0.368600
C     -1.178700   -1.573800   -1.173100
C     -0.587800   -1.591600   -2.545300
C      0.073800   -2.380400   -1.407300
C      1.288900   -1.820000   -0.793800
C      1.259100   -0.640500   -0.163500
H      0.857600    1.597300    0.867200
H     -2.113800   -2.096100   -1.008900
H     -1.108200   -2.149600   -3.315900
H     -0.063100   -0.706200   -2.886400
H     -0.004300   -3.461800   -1.441400
H      2.214900   -2.382700   -0.869600
H      2.156100   -0.209500    0.267500
