15
gdb_18906
C     -0.121400    1.541700    0.014500
C     -0.023700    0.053300    0.007400
C      0.760900   -0.875700   -0.968700
O      1.757500   -1.185100    0.030400
C      0.727600   -0.887200    0.998700
C     -0.461500   -1.841500    0.732700
C     -0.436300   -1.832800   -0.754300
N     -1.285000   -0.835500   -0.019100
H      0.877600    1.989600    0.033700
H     -0.646200    1.899400   -0.877600
H     -0.675600    1.889100    0.892600
H      1.157000   -0.649300   -1.956500
H      1.089900   -0.672400    2.001900
H     -0.906500   -2.611500    1.349000
H     -0.860100   -2.595500   -1.394300
