18
gdb_13348
O     -0.217200   -0.043100    0.017700
C     -0.100500    1.152600   -0.050700
C      1.215100    1.900200   -0.055000
C      1.340300    2.856100   -1.247500
C      2.616200    3.717400   -1.249400
C      2.781700    4.082300   -2.736500
O      2.002600    3.146800   -3.488000
C      1.462300    2.168900   -2.614900
H     -0.998700    1.812600   -0.116500
H      1.256500    2.483900    0.876300
H      2.033300    1.173200   -0.034700
H      0.464600    3.518300   -1.272600
H      2.541300    4.596400   -0.604400
H      3.465600    3.120000   -0.899900
H      2.408700    5.090700   -2.955400
H      3.830300    4.035900   -3.056800
H      2.125500    1.289800   -2.540600
H      0.505600    1.834100   -3.028700
