22
gdb_8000
C     -0.122500    1.583800   -0.003800
C      0.008100    0.056600    0.016200
C      0.816400   -0.522900   -1.172700
C      1.593400   -1.742500   -0.617100
C      2.965100   -1.945400   -1.271500
C      1.621900   -1.464300    0.880600
C      2.472400   -2.260500    1.821300
C      0.761100   -0.497300    1.204600
H      0.864800    2.058900    0.014700
H     -0.643700    1.923500   -0.905500
H     -0.685900    1.947000    0.862600
H     -1.010200   -0.364400    0.011700
H      0.191000   -0.772400   -2.035000
H      1.539900    0.231800   -1.507500
H      1.009300   -2.662600   -0.782400
H      3.608800   -1.073000   -1.110000
H      3.481300   -2.824200   -0.871600
H      2.861500   -2.087900   -2.352500
H      3.540000   -2.151600    1.594100
H      2.315900   -1.954500    2.859300
H      2.248800   -3.333300    1.747200
H      0.571700   -0.156300    2.218700
