16
gdb_3517
C      1.128500    0.575600   -0.722700
N     -0.331500    0.733500   -0.793300
C      0.292200    0.377300    0.490300
C     -0.000700   -0.993500    1.021800
C      0.922100   -1.551400    2.131000
C     -0.380000   -1.692000    2.942100
O     -1.139800   -1.015700    1.919900
H      1.518400   -0.284300   -1.261300
H      1.762600    1.457200   -0.763600
H     -0.581000    1.718500   -0.800300
H      0.347300    1.148100    1.258100
H     -0.155500   -1.678100    0.176900
H      1.460400   -2.470900    1.898100
H      1.623600   -0.815000    2.529800
H     -0.721900   -2.725000    3.088800
H     -0.424300   -1.166300    3.903100
