13
gdb_19007
O     -0.078900   -0.005600   -0.038900
C      0.008900    1.182500   -0.004700
O     -1.075000    2.038900    0.006400
C     -0.468300    3.327300    0.049300
C      0.791700    3.362000   -0.853900
N      1.397800    4.358700    0.099600
C      0.770400    3.311000    0.981900
C      1.192000    2.126600    0.035200
H     -1.198400    4.130400    0.063100
H      0.856500    3.456100   -1.938000
H      2.414000    4.242200    0.108100
H      0.810000    3.344800    2.070800
H      2.198800    1.716600    0.035400
