18
gdb_12203
C      0.340200    1.503600   -0.257000
C      0.065800    0.046400    0.057100
O      0.803800   -0.846700   -0.815700
C      1.353400   -1.586400    0.299600
C      2.804700   -1.673000    0.275800
C      4.004300   -1.755100    0.268300
C      0.679600   -0.616200    1.323900
C      1.583600    0.205700    2.229500
H      1.405400    1.736900   -0.185800
H      0.012900    1.725100   -1.277700
H     -0.212600    2.158600    0.425300
H     -1.012200   -0.150000   -0.030900
H      0.934100   -2.601400    0.334300
H      5.063700   -1.829100    0.252800
H     -0.072900   -1.131700    1.925700
H      2.390700    0.689600    1.674500
H      1.009600    0.979700    2.749400
H      2.046700   -0.433300    2.987800
