15
gdb_8637
C     -0.003200    1.564200    0.124300
C     -0.056800    0.043600   -0.017400
C      0.715200   -0.481900   -1.260900
O      2.070900   -0.035500   -1.249800
C      0.644900   -1.948100   -1.315600
C      0.623700   -3.148700   -1.297700
C      0.108100    0.078700   -2.493100
N     -0.400400    0.525100   -3.428500
H      1.031500    1.912200    0.164400
H     -0.497600    2.058700   -0.716900
H     -0.509100    1.873400    1.042800
H      0.396500   -0.445200    0.852200
H     -1.090300   -0.312400   -0.081700
H      2.578300   -0.681300   -0.745400
H      0.598200   -4.211200   -1.304400
