18
gdb_7672
C      0.231800    1.443100   -0.012500
C      0.018700   -0.056800    0.047900
C     -1.423400   -0.473400   -0.208300
O      0.906400   -0.769200   -0.890600
C      1.448100   -1.589500    0.152600
C      2.694600   -0.986700    0.817500
O      1.870600   -0.230700    1.746100
C      0.665500   -0.823300    1.233300
H      1.251200    1.698400    0.281700
H      0.053400    1.801800   -1.031100
H     -0.461800    1.959900    0.659000
H     -1.725500   -0.178200   -1.217700
H     -1.539200   -1.558700   -0.125200
H     -2.099200    0.002900    0.510100
H      1.416400   -2.657500   -0.070100
H      3.330100   -1.703600    1.352700
H      3.304700   -0.347500    0.171100
H      0.018300   -1.224900    2.015800
