16
gdb_7708
N     -0.079800    1.326500   -0.127800
C     -0.033400    0.061400    0.003600
C     -1.305700   -0.747000    0.107900
C     -1.133000   -1.978700    1.002100
C      0.022800   -2.839600    0.484000
C      1.305300   -2.051900    0.280900
O      2.411500   -2.544200    0.305000
N      1.146800   -0.690100    0.047300
H      0.853800    1.735600   -0.211200
H     -2.092000   -0.078100    0.460000
H     -1.586100   -1.069400   -0.904400
H     -0.929800   -1.664100    2.032600
H     -2.057900   -2.561900    1.025200
H      0.262300   -3.672500    1.148600
H     -0.240700   -3.278300   -0.487900
H      2.023900   -0.195100   -0.060500
