17
gdb_7327
C     -0.050400    1.322400   -0.406900
C     -0.079000    0.121100    0.540400
N     -1.352400   -0.575900    0.521500
C     -1.508600   -1.840600    0.076900
O     -0.629500   -2.576300   -0.341400
C     -2.982800   -2.307000    0.148500
C     -3.236600   -3.714400   -0.317100
O     -3.840800   -1.556500    0.557200
H      0.920200    1.824900   -0.352000
H     -0.217800    1.006400   -1.440500
H     -0.822100    2.054200   -0.144900
H      0.675300   -0.616300    0.255900
H      0.141000    0.444100    1.565700
H     -2.200300   -0.113300    0.820200
H     -2.893300   -3.828900   -1.350000
H     -2.636900   -4.412500    0.275500
H     -4.297500   -3.950300   -0.233800
