17
gdb_2544
C     -0.250500    1.474000   -0.107500
C     -0.001900   -0.035600   -0.137200
C      0.927800   -0.459400   -1.283900
O      2.181900    0.162600   -1.093200
C      3.004500    0.145300   -2.242100
C      1.076700   -1.978800   -1.270500
O      0.295900   -2.745000   -1.770700
H      0.691400    2.018200   -0.007500
H     -0.741200    1.810600   -1.027300
H     -0.895300    1.743200    0.734200
H      0.446000   -0.361500    0.809700
H     -0.943200   -0.583200   -0.253800
H      0.479800   -0.164200   -2.246500
H      3.236300   -0.877800   -2.574800
H      2.534900    0.680100   -3.081400
H      3.938100    0.646800   -1.977700
H      1.975600   -2.326200   -0.708400
