14
gdb_2165
C     -0.054800    1.409200    0.037500
N     -0.028900   -0.031900    0.127500
C     -1.197900   -0.853300   -0.097000
C     -0.579000   -2.257100    0.029300
O      0.818600   -2.067400   -0.216000
C      1.131000   -0.740400   -0.090900
O      2.252000   -0.315000   -0.163300
H      0.973500    1.764900    0.116700
H     -0.476500    1.747900   -0.919600
H     -0.650900    1.839000    0.849600
H     -1.978200   -0.675100    0.650300
H     -1.633500   -0.675100   -1.092600
H     -0.709500   -2.665400    1.037600
H     -0.968900   -2.970900   -0.698400
