10
gdb_29
C     -0.017900    1.466800    0.010100
C      0.001900    0.010700    0.002100
C      0.018200   -1.192700   -0.004500
C      0.038000   -2.648800   -0.012500
H      0.864600    1.875900    0.514800
H     -0.032200    1.872100   -1.007900
H     -0.902300    1.851900    0.530000
H     -0.834800   -3.063400    0.504500
H      0.032800   -3.043200   -1.034900
H      0.932100   -3.039300    0.486300
