12
gdb_2258
O     -0.122900    1.452600    0.004100
C     -0.034100    0.086400    0.074300
C     -0.249800   -0.836400   -1.138400
C     -1.157600   -0.923900    0.056500
N     -0.513300   -1.650100    1.157600
C      0.586600   -0.763900    1.189200
O      1.589400   -0.751400    1.842000
H      0.696600    1.793000   -0.372000
H     -0.647600   -0.307900   -2.000700
H      0.439400   -1.645100   -1.364500
H     -2.224000   -0.745300    0.053800
H     -0.390200   -2.657200    1.154700
