17
gdb_19409
O     -0.031800    1.468700    0.014400
C     -0.004600    0.059100    0.044800
C      0.199300   -0.656700    1.385700
C     -0.911500   -0.366000    2.312600
N     -1.137600   -1.383500    1.265500
C     -1.382100   -0.598400    0.024900
C     -2.698600   -0.000600   -0.348100
C     -2.121300   -1.158700   -1.141000
H      0.874900    1.792800    0.014700
H      0.656800   -0.343900   -0.733900
H      1.098200   -1.183900    1.688600
H     -0.850200   -0.790800    3.309700
H     -1.432800    0.584700    2.240800
H     -3.542300   -0.206600    0.302500
H     -2.691400    0.988700   -0.792100
H     -1.735600   -0.965700   -2.137200
H     -2.575800   -2.134500   -1.007900
