11
gdb_23772
F     -0.002900    0.056900    0.004200
C     -0.050800    1.375800    0.011300
N     -1.188900    1.957000    0.029300
C     -1.221100    3.331700    0.036800
C     -0.081800    4.063700    0.025500
N      1.125100    3.415100    0.006400
C      1.274900    2.029100   -0.002600
O      2.355600    1.478700   -0.019600
H     -2.196200    3.799300    0.051900
H     -0.057700    5.145400    0.030700
H      1.992200    3.935300   -0.002300
