13
gdb_2254
C     -0.082900    1.567100    0.067500
C      0.149900    0.096400   -0.003700
O     -0.754300   -0.798600    0.693400
C      0.638400   -0.930200    0.959400
C      1.188300   -1.856000   -0.132900
C      0.709400   -0.764300   -1.141900
O      0.877500   -0.584800   -2.310400
H      0.800800    2.111900   -0.278000
H     -0.924800    1.852200   -0.571300
H     -0.310300    1.869600    1.092900
H      0.983600   -0.783600    1.975600
H      2.277900   -1.952800   -0.164100
H      0.720400   -2.840300   -0.192500
