15
gdb_20863
C      0.062000    1.519900    0.121800
C     -0.086900    0.001400   -0.081300
C      0.703400   -0.516800   -1.240700
N      0.166900   -0.838000   -2.385300
O      1.182100   -1.260300   -3.189000
N      2.396300   -1.193800   -2.536600
C      2.117400   -0.747900   -1.339700
N      3.057500   -0.624500   -0.334200
H      1.104700    1.810400    0.292300
H     -0.292100    2.064600   -0.757600
H     -0.518700    1.849100    0.988000
H      0.229800   -0.527000    0.826100
H     -1.138600   -0.246900   -0.246900
H      4.009300   -0.691500   -0.668900
H      2.927600    0.175400    0.268100
