18
gdb_13984
C     -0.235100    1.389800   -0.467000
O     -0.261900    0.026600   -0.815400
C      0.944700   -0.642800   -0.508400
C      0.795200   -2.094400   -0.825300
C      1.940700   -2.995000   -1.249200
C      0.739000   -2.855200   -2.131600
O     -0.320400   -3.702200   -1.688500
C     -0.392300   -2.971400   -0.431100
H     -0.064200    1.533800    0.612000
H      0.550800    1.936600   -1.012300
H     -1.206800    1.814000   -0.730600
H      1.784500   -0.215000   -1.082800
H      1.190500   -0.504500    0.560600
H      2.830100   -2.467500   -1.582300
H      2.125500   -3.936000   -0.737800
H      0.744400   -2.540700   -3.168800
H     -0.279900   -3.627600    0.440500
H     -1.328600   -2.409300   -0.368100
