18
gdb_9859
C     -0.018500    1.447600   -0.214100
C     -0.009700    0.000800   -0.045600
C      0.029800   -1.196200    0.088000
C      0.003900   -2.648200    0.261100
C     -1.401400   -3.208400    0.063300
O     -2.350200   -2.663700    0.935800
C     -1.859700   -3.611200   -1.315500
C     -1.593000   -4.657200   -0.244100
H      0.942300    1.805400   -0.600400
H     -0.795100    1.763400   -0.919500
H     -0.204400    1.960700    0.735800
H      0.695100   -3.127800   -0.442200
H      0.347900   -2.905900    1.271300
H     -2.337500   -1.707800    0.797100
H     -2.896000   -3.410600   -1.561800
H     -1.166200   -3.530600   -2.145900
H     -0.716800   -5.289300   -0.342300
H     -2.452400   -5.136600    0.209900
