13
gdb_2597
O      0.143400    1.327600    0.489800
C     -0.004300    0.075200   -0.142500
C     -1.414500   -0.486600   -0.009200
C     -1.603500   -1.951700    0.219300
N     -1.875200   -0.998700    1.293800
C     -2.405800    0.266800   -0.752400
N     -3.141000    0.904600   -1.376500
H     -0.386900    1.974500    0.010700
H      0.274500    0.114000   -1.205800
H      0.690200   -0.606000    0.361100
H     -2.479100   -2.447300   -0.187200
H     -0.702600   -2.559700    0.253400
H     -1.104300   -0.950800    1.956700
