15
gdb_2450
O      0.009400    0.458000    0.995100
C     -0.013900    1.384500    0.228800
C     -1.283400    2.054500   -0.325300
C     -0.818900    3.363600   -0.929200
C     -0.058100    4.301800   -0.025800
C      0.704000    3.385000   -0.949600
C      1.221100    2.089500   -0.358900
H     -1.709100    1.389100   -1.088000
H     -2.031300    2.148900    0.468100
H     -1.382800    3.787200   -1.751700
H     -0.076200    5.358200   -0.269500
H     -0.040900    4.095800    1.041700
H      1.233600    3.823800   -1.786900
H      1.987100    2.205100    0.414100
H      1.644500    1.436000   -1.133000
