17
gdb_16812
C      0.034100    1.597400   -0.016700
C      0.016800    0.075200    0.013700
C      0.602700   -0.628400   -1.227300
C      1.247300   -1.905400   -0.662300
O      1.479300   -2.922800   -1.262700
C      1.466500   -1.666400    0.802000
C      2.184600   -0.389800    1.117500
N      0.735300   -0.453400    1.216800
H      1.050600    1.981900   -0.152200
H     -0.578400    1.971900   -0.842500
H     -0.362100    2.003100    0.918500
H     -1.018000   -0.262100    0.143900
H     -0.147500   -0.888300   -1.975900
H      1.368500   -0.030100   -1.736000
H      1.508500   -2.516100    1.474400
H      2.708100   -0.315000    2.065800
H      2.650700    0.155400    0.300300
