15
gdb_7928
C     -0.025100    1.564500    0.018500
C      0.001200    0.034200    0.019000
N      0.766900   -0.552200   -1.072000
C      1.866800   -1.256100   -0.655600
O      2.728000   -1.778600   -1.320600
N      1.789300   -1.260500    0.748900
C      0.724800   -0.531400    1.245300
N      0.345500   -0.305600    2.434800
H      0.991000    1.969800    0.015500
H     -0.554700    1.943000   -0.861500
H     -0.539600    1.914900    0.916200
H     -1.027900   -0.345600    0.020100
H      0.686700   -0.269500   -2.033300
H      2.476800   -1.744000    1.302600
H      0.950400   -0.755700    3.122800
