18
gdb_4167
C     -0.483300    1.667300    0.009800
C     -0.054700    0.188500    0.059500
C     -1.232700   -0.750600   -0.013400
N     -1.822600   -1.101600   -1.093100
O     -1.270700   -0.489900   -2.229400
C     -1.797300   -1.301000    1.251300
C     -3.176400   -0.899100    1.673800
N     -2.901300   -2.262300    1.216700
H      0.391500    2.321100    0.073000
H     -1.005600    1.880400   -0.925700
H     -1.150800    1.914400    0.841000
H      0.612600   -0.022700   -0.780900
H      0.499200   -0.005500    0.983900
H     -1.774700   -0.894300   -2.943200
H     -1.058700   -1.487700    2.028000
H     -3.409200   -0.800400    2.730800
H     -3.714700   -0.225100    1.012700
H     -3.190500   -2.359800    0.244600
