22
gdb_15260
C     -0.610100    0.491500   -2.558900
C     -0.394000   -0.700100   -1.618100
C     -1.675000   -1.137100   -0.933100
C     -2.622500   -2.174400   -1.504300
C     -2.400900   -2.873100   -2.831200
C     -1.825000   -2.480500   -0.249900
C     -0.701000   -3.482400   -0.212800
O      0.233400   -3.049600    0.773200
H      0.330700    0.811800   -3.018000
H     -1.309300    0.240900   -3.363800
H     -1.025200    1.349700   -2.018500
H      0.049400   -1.527300   -2.181600
H      0.342200   -0.437600   -0.848800
H     -2.164500   -0.315400   -0.413400
H     -3.675200   -1.975800   -1.316400
H     -1.345000   -3.035900   -3.059000
H     -2.893600   -3.852000   -2.845700
H     -2.822600   -2.282100   -3.651900
H     -2.388100   -2.467900    0.679800
H     -1.104000   -4.476300    0.041200
H     -0.215800   -3.575800   -1.194100
H      0.915200   -3.723900    0.851600
