17
gdb_13274
C      0.077100    1.447200   -0.022700
O     -0.085900    0.033000   -0.014600
C      0.529200   -0.630900   -1.007600
N      0.448000   -1.885800   -1.089000
C      1.130600   -2.527500   -2.176900
C      2.001400   -3.753600   -1.809400
O      1.303000   -4.589400   -2.753600
C      0.311600   -3.567600   -2.979400
H      1.131100    1.730000    0.085400
H     -0.325800    1.892200   -0.940400
H     -0.483400    1.824600    0.833000
H      1.086600    0.008200   -1.711400
H      1.662200   -1.820600   -2.832300
H      3.073000   -3.686800   -2.029500
H      1.855000   -4.081400   -0.772700
H     -0.649400   -3.805800   -2.506800
H      0.160500   -3.366300   -4.046200
