18
gdb_14418
C     -0.022300    1.574400   -0.040300
C      0.032700    0.084300    0.044900
C      0.006400   -0.990300   -1.015500
C      1.278100   -1.648500   -0.480500
C      0.943200   -0.945600    0.859200
C     -0.366300   -1.640600    1.331600
O     -0.867600   -1.190000    2.572200
C     -1.032200   -0.998900    0.118100
H      0.928400    1.993800   -0.390300
H     -0.801400    1.891000   -0.742700
H     -0.246300    2.036100    0.929200
H     -0.311500   -0.884400   -2.046200
H      1.347200   -2.742900   -0.468300
H      2.171900   -1.233700   -0.955400
H      1.711100   -0.698900    1.590700
H     -0.342100   -2.733400    1.405200
H     -1.028900   -0.242500    2.493400
H     -2.092700   -0.914300   -0.089400
