14
gdb_21936
O      0.145500    1.097800   -0.742900
C     -0.038200    0.012100    0.182100
C     -1.431700   -0.524700    0.099800
N     -2.110300   -0.981600    1.152700
N     -3.282100   -1.387500    0.644900
C     -3.395100   -1.189100   -0.700400
C     -2.198000   -0.625500   -1.088700
O     -1.831200   -0.246300   -2.338500
H     -0.420400    1.821400   -0.450500
H      0.698900   -0.737300   -0.127200
H      0.201500    0.307700    1.210600
H     -3.973100   -1.773300    1.264300
H     -4.280200   -1.451300   -1.255200
H     -1.025600    0.283600   -2.230000
