11
gdb_10000
O      0.009500   -0.064200   -0.091000
C     -0.019700    1.120200   -0.022100
O      1.110900    1.875500   -0.153500
C      0.983000    3.288500   -0.047500
C      2.119800    3.782400    0.883400
O      1.994100    4.725000    1.606900
C      1.108300    3.918200   -1.367500
N      1.230100    4.427600   -2.397000
H     -0.923200    1.731900    0.156600
H      0.027800    3.581600    0.404800
H      3.038500    3.168200    0.811800
