20
gdb_7581
C      0.018600    1.486900   -0.150800
C     -0.023700   -0.032800    0.064800
C      0.728400   -0.429800    1.343300
C     -1.466200   -0.551500    0.084700
O     -2.122400    0.054800    1.174300
C     -2.198600   -0.521800   -1.285700
O     -2.106700   -1.953400   -1.409600
C     -1.617400   -2.091200   -0.062400
H      1.053100    1.839700   -0.204300
H     -0.479600    1.779800   -1.080900
H     -0.478300    2.005300    0.673600
H      0.462500   -0.520000   -0.791100
H      0.256900    0.020100    2.221100
H      0.740700   -1.515200    1.487700
H      1.767700   -0.090000    1.300000
H     -3.031200   -0.261600    1.201400
H     -3.240300   -0.174100   -1.215700
H     -1.705300   -0.003100   -2.115500
H     -0.706900   -2.699200   -0.014000
H     -2.370900   -2.521800    0.614200
