15
gdb_11497
O      0.366500    1.127700    1.233300
C      0.846600    1.004400    0.138400
C      1.104600    2.181100   -0.812600
O      1.360400    1.939500   -1.967900
C      1.044300    3.580200   -0.221300
N      2.345500    3.821200    0.396800
C      3.359300    4.436400   -0.457100
C      2.702200    5.217500    0.628300
H      1.104000    0.023300   -0.313800
H      0.794900    4.293600   -1.022200
H      0.278800    3.614700    0.559600
H      4.369900    4.060200   -0.330400
H      3.084500    4.673800   -1.482800
H      1.987100    5.981700    0.329200
H      3.223200    5.419200    1.559400
