15
gdb_20115
O      1.050200    0.747600   -1.216700
C      0.323800    1.511500   -0.611500
C      0.739500    2.137600    0.679500
C      1.295000    1.200800    1.714900
N      2.176000    2.104300    0.994200
C     -1.037700    1.840200   -1.153400
C     -2.227700    1.775500   -0.277600
O     -1.682200    3.023300   -0.675000
H      0.202300    3.026300    0.988400
H      1.136000    1.434900    2.763600
H      1.311600    0.143800    1.462800
H      2.626900    1.582900    0.240400
H     -1.155700    1.628600   -2.214200
H     -3.185800    1.512700   -0.722000
H     -2.107300    1.522200    0.774200
