14
gdb_21176
C     -0.128300    1.461400   -0.089300
N     -0.011500    0.023500    0.109700
C     -1.112900   -0.779900    0.078400
C     -1.267000   -2.138500   -0.022800
C     -2.670600   -2.290700    0.076800
O     -3.319300   -3.465900    0.034200
N     -3.323900   -1.160800    0.218800
O     -2.301300   -0.173600    0.214700
H      0.845600    1.917300    0.099700
H     -0.458700    1.732200   -1.101400
H     -0.845700    1.871200    0.624000
H      0.823700   -0.407300   -0.252800
H     -0.517400   -2.901100   -0.137400
H     -4.262900   -3.276500    0.124600
