20
gdb_18701
C     -0.944100    1.168700    0.073100
C      0.072200    0.017200   -0.022700
C      0.994900    0.191700   -1.203800
C      2.285900   -0.136800   -1.216200
C      3.016300   -0.735100   -0.044800
C      2.291500   -0.554000    1.277700
C      1.873900    0.827400    1.720100
C      0.829800   -0.174500    1.285000
H     -0.437700    2.124100    0.244300
H     -1.528200    1.255600   -0.849500
H     -1.643400    1.006000    0.899800
H     -0.505800   -0.904800   -0.198400
H      0.540900    0.601900   -2.104000
H      2.864800    0.007900   -2.125500
H      3.165800   -1.809300   -0.231800
H      4.028200   -0.310400    0.017700
H      2.619900   -1.227400    2.064200
H      1.942800    1.077200    2.773100
H      2.090900    1.652200    1.048700
H      0.225000   -0.599500    2.081700
