14
gdb_3395
C      0.054600    1.554300    0.065300
C      0.102700    0.043100    0.055900
C      1.325900   -0.785200   -0.205000
N      2.542300   -0.206000    0.371300
C      1.979800   -0.154600    1.663200
O      2.403200    0.275500    2.697800
C      0.696500   -0.818400    1.181500
H      0.979800    1.992600    0.448300
H     -0.110300    1.940600   -0.946300
H     -0.764400    1.910100    0.698100
H     -0.800000   -0.420200   -0.341800
H      1.394300   -1.588500   -0.927000
H      3.055700    0.566200   -0.038900
H      0.139700   -1.602900    1.673700
