17
gdb_19374
O     -0.078000    1.388500    0.128700
C      0.008800   -0.017600   -0.029000
C     -1.338500   -0.669400    0.088600
C     -1.847600   -1.697100   -0.842800
N     -2.400200   -0.329000   -0.938900
C     -3.344500   -0.058200    0.219600
C     -3.552800   -1.140300    1.242100
C     -2.287000   -0.328800    1.261000
H     -0.735300    1.685900   -0.512400
H      0.461000   -0.289800   -0.995300
H      0.676800   -0.374500    0.764100
H     -1.219800   -1.935600   -1.697000
H     -2.466500   -2.524000   -0.515100
H     -4.024200    0.775400    0.098500
H     -4.263600   -0.850200    2.010800
H     -3.581900   -2.200900    1.018900
H     -1.974200    0.282100    2.096100
