10
gdb_23853
F      0.036700    0.078900    0.003600
C     -0.009900    1.390400    0.011000
N     -1.189100    1.896000    0.028700
O     -1.266600    3.278800    0.036900
C     -0.149400    4.019700    0.026300
C      1.105300    3.531100    0.007800
C      1.304100    2.097200   -0.001900
O      2.359400    1.495300   -0.019100
H     -0.405600    5.073400    0.034900
H      1.959100    4.195800    0.000100
