17
gdb_3193
C     -0.025000    1.556400    0.013100
C      1.486100    1.946400    0.001400
C      2.203900    0.552600   -0.011700
C      1.239800   -0.249400   -0.916300
C      0.021100   -0.010700    0.005000
C      0.611600   -0.423200    1.345700
C      1.906000   -0.089000    1.335800
H     -0.557300    1.943300    0.885100
H     -0.537000    1.928600   -0.879700
H      1.741200    2.516400   -0.897400
H      1.777300    2.545900    0.866900
H      3.253000    0.591200   -0.307300
H      1.121000    0.181200   -1.916700
H      1.511500   -1.304700   -0.997700
H     -0.919800   -0.485600   -0.275400
H      0.035900   -0.805500    2.179800
H      2.606600   -0.141700    2.160300
