15
gdb_1967
C      0.207000    1.502600   -0.139400
O     -0.317800    0.201400   -0.290800
C      0.478300   -0.628000   -1.089500
C      1.785600   -1.207100   -0.446600
C      1.284800   -2.601600   -0.857600
O      1.803900   -3.675800   -0.942300
C     -0.104200   -2.057500   -1.223100
H      1.189400    1.494700    0.356200
H      0.314400    2.011100   -1.110100
H     -0.495400    2.065200    0.479600
H      0.677900   -0.158300   -2.063600
H      2.758000   -0.900400   -0.838300
H      1.777900   -1.087300    0.642600
H     -0.834100   -2.251100   -0.429600
H     -0.524800   -2.366900   -2.182000
