14
gdb_15218
C     -0.322900    1.437800    0.143700
N      0.027000    0.020800    0.007700
C      0.507500   -0.525900   -1.262800
C      0.751300    0.298000   -2.488000
O      1.097900    1.453200   -2.497200
C      1.414700   -0.385000   -0.049400
C      2.496700    0.572300   -0.039100
N      3.385600    1.306500    0.046200
H      0.329100    2.120700   -0.406400
H     -1.350100    1.562200   -0.208300
H     -0.293500    1.678700    1.209600
H      0.139900   -1.528400   -1.474000
H      0.570400   -0.257500   -3.433700
H      1.649500   -1.297900    0.493800
