18
gdb_17496
C     -0.007000    1.564000    0.147800
C      0.031700    0.066900    0.042600
C     -0.892300   -0.867200    0.778300
C      0.594900   -0.961700    1.017800
C      1.311400   -1.664500   -0.173200
O      0.333700   -2.063400   -1.150300
C      0.778200   -0.694800   -1.125600
C      1.297400   -0.092300   -2.389100
H      0.979900    2.010600   -0.022100
H     -0.698700    2.002800   -0.581800
H     -0.340200    1.873400    1.143600
H     -1.449900   -0.402500    1.586300
H     -1.409400   -1.663900    0.258800
H      1.056600   -0.790100    1.981600
H      2.243700   -2.217000   -0.147400
H      0.474700    0.167900   -3.065300
H      1.864200    0.821400   -2.184400
H      1.950700   -0.801500   -2.904100
