13
gdb_4448
N      0.101300    1.415800    0.123300
C     -0.020200    0.023300    0.025000
C     -1.087800   -0.797400    0.032200
O     -2.411800   -0.499200    0.125900
N     -0.619200   -2.123500   -0.045200
C      0.774100   -2.141700   -0.020500
O      1.513200   -3.103300    0.027200
N      1.118400   -0.792800   -0.059500
H      0.404300    1.844100   -0.747800
H     -0.786300    1.825800    0.388600
H     -2.835700   -0.635200   -0.731500
H     -1.149100   -2.933300    0.231700
H      2.051600   -0.485300    0.157100
