17
gdb_11557
O      0.064600    0.587200    0.989500
C     -0.061900    0.080400   -0.324400
C     -1.248100   -0.868300   -0.563500
O     -1.540700   -1.168900   -1.699200
C     -1.953000   -1.394200    0.684200
N     -3.002700   -2.386900    0.591600
C     -3.996000   -2.380600   -0.476200
C     -2.972000   -3.464200   -0.390100
H     -0.559100    1.311100    1.099400
H     -0.103000    0.866900   -1.089800
H      0.846000   -0.503200   -0.523100
H     -1.169300   -1.772900    1.355000
H     -2.354600   -0.519100    1.215200
H     -5.016800   -2.562800   -0.148200
H     -3.885100   -1.678700   -1.295600
H     -2.201900   -3.458900   -1.154200
H     -3.238900   -4.443600   -0.000400
