16
gdb_6654
C     -0.180200    1.455600    0.011700
C      0.074700   -0.032100    0.001400
O      1.154900   -0.563700   -0.012300
O     -1.092500   -0.715800    0.009100
C     -0.975700   -2.147100    0.000200
C     -2.401100   -2.703100    0.010100
C     -2.410500   -4.160000    0.002600
C     -2.389500   -5.361200   -0.004400
H      0.771100    1.985800    0.004000
H     -0.774400    1.740700   -0.861200
H     -0.755100    1.731800    0.900100
H     -0.427800   -2.468400   -0.889800
H     -0.411800   -2.478100    0.876700
H     -2.926300   -2.325200    0.895500
H     -2.942000   -2.315900   -0.861600
H     -2.382900   -6.422900   -0.010900
