17
gdb_2099
C      0.018900    1.529400   -0.038900
C      0.011500    0.003100    0.014900
O      0.622000   -0.453000   -1.184600
C      0.935500   -1.834400   -1.163000
C      2.005800   -2.140400   -0.112700
C      1.634100   -1.480700    1.189100
C      0.706900   -0.527600    1.244400
H      1.046600    1.903500   -0.035800
H     -0.474900    1.873500   -0.951600
H     -0.509600    1.946900    0.823400
H     -1.042100   -0.338100    0.033700
H      0.030500   -2.428200   -0.951900
H      1.276100   -2.086800   -2.171300
H      2.098400   -3.226200    0.019200
H      2.987700   -1.787000   -0.456000
H      2.136100   -1.814300    2.093700
H      0.413300   -0.082900    2.192200
