14
gdb_3556
O      0.021300    1.340400    0.102000
C      0.032000   -0.061800   -0.057200
C     -1.409100   -0.538900   -0.204800
C     -1.345300   -0.440500   -1.681100
C      0.221900   -0.541000   -1.526900
C     -0.012200   -2.051200   -1.399400
N     -1.450000   -1.783600   -1.045200
H      0.930500    1.651500    0.047700
H      0.668200   -0.544500    0.700300
H     -2.239300   -0.373500    0.468500
H     -2.024600   -0.060800   -2.431600
H      0.994700   -0.098200   -2.154100
H      0.012800   -2.588600   -2.350600
H      0.561100   -2.605700   -0.645800
