12
gdb_19217
O      0.094400    0.007700   -0.015000
C      0.039000    1.188800    0.035600
C     -1.127600    2.237700    0.133900
C     -2.007800    2.224300    1.286700
N     -2.680600    2.209900    2.226600
C      0.005000    3.268900    0.073400
C      1.009000    3.026200    1.111600
N      1.070600    2.186700   -0.133300
H     -1.708500    2.198300   -0.792400
H     -0.005400    4.144100   -0.562700
H      1.851500    3.705000    1.178900
H      0.725700    2.550600    2.046500
