16
gdb_18437
C     -0.233700    1.574900   -0.017100
C      0.023700    0.074300    0.027600
C      1.105000   -0.602100   -0.865700
N      1.685600   -1.355500    0.312300
C      2.222400   -0.334300    1.246100
C      2.883500    0.862000    0.790000
N      3.449200    1.805600    0.431500
C      0.752900   -0.568900    1.208800
H      0.683800    2.154900    0.100700
H     -0.686500    1.853500   -0.974500
H     -0.929400    1.871200    0.775400
H     -0.922300   -0.458700   -0.108500
H      0.712700   -1.313800   -1.592600
H      1.824700    0.057700   -1.358000
H      2.738500   -0.802100    2.080600
H      0.274200   -1.025400    2.070700
