16
gdb_8706
O      0.012900    1.299400   -0.387100
C      0.076800   -0.078400   -0.048100
C     -1.340200   -0.642200    0.092000
O     -2.115000   -0.284000   -1.057200
C     -1.385300   -2.170100    0.174800
O     -2.713400   -2.649800    0.152300
C     -2.075000    0.003700    1.272500
O     -1.667500    0.973900    1.870800
H     -0.316300    1.742800    0.407900
H      0.589900   -0.582000   -0.873200
H      0.650000   -0.246500    0.873000
H     -1.791100    0.593800   -1.312800
H     -0.791500   -2.577700   -0.658600
H     -0.935400   -2.516400    1.111800
H     -3.122900   -2.270500   -0.635000
H     -3.056100   -0.452000    1.505900
