13
gdb_20330
C     -0.473800   -0.726500   -1.006500
C     -0.124800    0.144600   -0.258100
C      0.271400    1.195300    0.668300
N      1.518400    1.846600    0.281600
C      2.337900    1.641400   -0.770200
N      3.363800    2.472700   -0.719000
C      3.113100    3.181100    0.414400
N      2.007700    2.842800    1.059500
H     -0.785800   -1.498600   -1.666600
H     -0.509000    1.962200    0.731300
H      0.399200    0.786500    1.676900
H      2.145700    0.894300   -1.523100
H      3.759500    3.966900    0.776300
