15
gdb_11648
O     -0.023500    1.439600   -0.058300
C      0.018000    0.046100    0.014700
C     -0.053700   -0.670600    1.405000
C     -1.513400   -0.137800    1.525600
C     -1.374000   -0.650000    0.052300
C     -0.630800   -1.891800    0.636400
C     -2.377000   -0.641100   -0.982500
N     -3.179900   -0.640400   -1.814700
H      0.877600    1.775800   -0.043200
H      0.727800   -0.384700   -0.702900
H      0.709400   -0.686700    2.181600
H     -2.190800   -0.711100    2.161500
H     -1.638000    0.936600    1.643900
H      0.037200   -2.423500   -0.046000
H     -1.251700   -2.577100    1.214500
