16
gdb_12995
O      0.159200    1.336400   -0.369800
C      0.009100   -0.003800   -0.076500
C     -0.382900   -0.984100   -1.164500
C     -1.314000   -0.759200   -0.004200
C     -1.233700   -1.777500    1.135200
C      0.265000   -1.855800    1.520200
C      0.846500   -0.530900    1.035500
O      1.759600    0.101800    1.518200
H      0.903600    1.627600    0.179800
H     -0.647600   -0.497300   -2.096700
H      0.139200   -1.929800   -1.277100
H     -2.245000   -0.235400   -0.186900
H     -1.816300   -1.418900    1.989900
H     -1.642600   -2.751300    0.846800
H      0.441400   -1.978600    2.589900
H      0.780200   -2.680400    1.013200
