16
gdb_14904
C      0.002200   -1.202100    0.005500
C     -0.016400   -0.001900    0.038100
C     -0.011600    1.462000    0.029900
O     -0.727900    1.914800    1.171400
C     -0.563000    3.306200    1.400600
C      0.884600    3.637300    1.766000
C      1.815700    2.976800    0.784900
C      1.406400    2.001800   -0.020600
H      0.012000   -2.263900   -0.011500
H     -0.541900    1.794600   -0.884000
H     -0.861200    3.877700    0.506100
H     -1.253500    3.559400    2.209300
H      1.030100    4.725000    1.760400
H      1.105900    3.300800    2.787800
H      2.844000    3.325400    0.739300
H      2.064000    1.542100   -0.751300
