16
gdb_15559
C      0.004500    1.582100    0.007900
C     -0.000000    0.053500    0.010100
C      0.809400   -0.573900   -1.169500
N      1.982000   -1.247100   -0.587500
C      1.862500   -1.179900    0.675900
N      0.736900   -0.507200    1.161400
C      0.384300   -0.422500    2.483900
O      1.024100   -0.891500    3.398000
H      1.030200    1.963700   -0.007900
H     -0.515900    1.955700   -0.879700
H     -0.500000    1.988800    0.889900
H     -1.030700   -0.314600    0.024500
H      0.220600   -1.305600   -1.733100
H      1.136700    0.192000   -1.880700
H      2.554300   -1.599300    1.395700
H     -0.566400    0.126000    2.625500
