19
gdb_13940
C     -0.145000    1.483500   -0.180300
N     -0.084100    0.068800    0.103400
C     -1.292700   -0.652300    0.532800
C     -0.390900   -1.550600    1.413100
C      0.699700   -0.471800    1.218300
C      2.197800   -0.781300    1.059600
O      2.523500   -0.070100    2.271600
C      1.165300    0.379500    2.435700
H      0.861000    1.870700   -0.373800
H     -0.742400    1.648200   -1.083600
H     -0.593300    2.083400    0.633100
H     -1.983900   -0.035500    1.130900
H     -1.859400   -1.123800   -0.277600
H     -0.717700   -1.733400    2.437700
H     -0.134100   -2.499800    0.937900
H      2.485300   -1.839500    1.107200
H      2.653700   -0.324100    0.170700
H      1.075000    1.466800    2.311500
H      0.751000    0.097300    3.412100
