20
gdb_20056
C     -0.187700    1.424600   -0.163000
C      1.256800    1.066000    0.088000
C      0.209700   -0.017800    0.028000
C     -0.197500   -0.771700    1.278000
C     -1.614500   -1.409400    1.197700
C     -1.517600   -2.760200    1.950600
C     -0.032000   -3.037100    1.955300
C      0.676900   -1.967600    1.600800
H     -0.734500    1.908700    0.640100
H     -0.471800    1.758200   -1.154900
H      1.960100    1.153700   -0.732800
H      1.676700    1.312200    1.058200
H      0.215400   -0.631500   -0.870300
H     -0.152600   -0.060100    2.118700
H     -2.394200   -0.753500    1.593000
H     -1.854900   -1.596400    0.145300
H     -1.898500   -2.683700    2.979200
H     -2.101000   -3.553600    1.469400
H      0.384300   -3.992200    2.258000
H      1.759800   -1.912000    1.563400
