13
gdb_971
C     -0.037700    1.550400    0.121500
C      0.014500    0.068400   -0.006800
C      0.055700   -0.765900   -1.096300
O      0.057700   -0.384500   -2.396700
N      0.096700   -2.083200   -0.738400
C      0.081200   -2.077300    0.579800
N      0.032200   -0.813400    1.069700
H      0.828700    1.957200    0.658900
H     -0.043700    1.993400   -0.877000
H     -0.939800    1.896300    0.642500
H      0.091400   -1.198400   -2.913000
H      0.103700   -2.948900    1.215700
H      0.012000   -0.551700    2.040800
