18
gdb_16520
C     -0.020300    1.445400    0.040400
C      0.004800   -0.062400   -0.011900
C      0.993300   -0.749700   -0.955600
O      0.396300   -1.999900   -1.312100
C     -0.633800   -2.237900   -0.365300
C     -0.073100   -2.322100    1.092900
C     -0.401000   -0.834900    1.239000
C     -1.262900   -0.865600   -0.019900
H      0.932300    1.847100    0.404800
H     -0.204200    1.873600   -0.951400
H     -0.806500    1.804900    0.711600
H      1.147800   -0.163500   -1.870200
H      1.974900   -0.912800   -0.487800
H     -1.254200   -3.057500   -0.725000
H     -0.712400   -2.935700    1.734100
H      0.966300   -2.652300    1.194000
H     -0.591000   -0.309800    2.168600
H     -2.256100   -0.489600   -0.226900
