17
gdb_20241
C     -0.026700    1.555300   -0.132200
C      1.423000    1.977000    0.066600
C      2.112600    1.396300    1.275900
C      1.267100    0.438900    2.102400
N      0.687200   -0.545200    1.171000
C      0.001400    0.040400    0.004400
C      1.408900   -0.448700   -0.116400
C      2.321400    0.760200   -0.084800
H     -0.706700    2.025900    0.589300
H     -0.379800    1.828100   -1.133600
H      1.744500    2.949400   -0.290100
H      2.902100    1.966100    1.754600
H      1.884400   -0.099400    2.830300
H      0.464200    0.939400    2.656500
H     -0.855500   -0.531700   -0.342100
H      1.704700   -1.369300   -0.606400
H      3.265600    0.775600   -0.611800
