10
gdb_3812
C      0.011200    1.391200    0.008100
O     -0.031400   -0.044600    0.003200
C     -1.235300   -0.576200    0.010400
N     -2.380800    0.050700    0.021500
O     -3.293800   -0.965200    0.024800
N     -2.623700   -2.177000    0.014800
N     -1.387400   -1.950200    0.006500
H      1.068200    1.652600    0.000900
H     -0.489500    1.789600   -0.878800
H     -0.475700    1.783100    0.905600
