17
gdb_10163
C      0.005500    1.718700    0.215700
C     -0.154500    0.202700    0.214300
N      0.834700   -0.426500    1.091700
C      0.776000   -1.876400    1.119700
C      2.103100   -2.430200    1.639500
O      2.217100   -3.410900    2.320600
C     -0.363300   -2.342300    2.030000
O     -1.157400   -3.192800    1.738200
H      0.988600    2.012200   -0.170800
H     -0.752100    2.186400   -0.419000
H     -0.092500    2.117300    1.229300
H     -1.152300   -0.065000    0.582900
H     -0.093700   -0.184600   -0.819100
H      1.766800   -0.116200    0.832000
H      0.613300   -2.342600    0.127300
H      2.992400   -1.837700    1.315100
H     -0.394600   -1.796300    2.997600
