12
gdb_843
C     -0.003200    1.484800    0.039800
C     -0.000700   -0.003700   -0.020400
C     -0.068800   -0.822700   -1.092600
O     -0.032000   -2.132500   -0.631600
C      0.057200   -1.988500    0.707200
O      0.111100   -3.102100    1.436000
N      0.081100   -0.778700    1.146200
H      0.911900    1.855400    0.513600
H     -0.076000    1.918900   -0.960600
H     -0.845800    1.847100    0.638100
H     -0.140900   -0.692900   -2.157600
H      0.074300   -3.859000    0.838800
