18
gdb_19369
O      0.158000    1.369700    0.116400
C      0.031600   -0.032900   -0.092500
C     -1.389700   -0.499700   -0.048700
C     -2.070100   -0.964900    1.218000
C     -1.934800   -1.915300    0.056900
C     -2.908100   -1.631800   -1.121400
C     -3.829900   -0.465500   -0.893900
C     -2.382400   -0.208400   -1.214000
H     -0.304200    1.576000    0.935800
H      0.466000   -0.214900   -1.082600
H      0.628400   -0.605700    0.636400
H     -1.383900   -1.175600    2.034600
H     -3.026500   -0.580200    1.554100
H     -1.373300   -2.837400    0.140900
H     -3.066900   -2.342500   -1.922000
H     -4.501300   -0.269700   -1.725200
H     -4.273500   -0.241800    0.070200
H     -2.075900    0.345400   -2.092100
