12
gdb_20480
C      0.050300    1.393600   -0.130700
O      1.449400    1.801300   -0.013700
C      1.980700    0.706900    0.588800
C      1.149500   -0.366500    0.593700
O     -0.031100   -0.032300   -0.052400
C      1.881900   -1.412900    1.166400
N      3.107600   -0.976400    1.503200
N      3.153600    0.339200    1.124300
H     -0.498900    1.845600    0.708400
H     -0.330900    1.732500   -1.094900
H      1.611400   -2.438400    1.360900
H      3.982300    0.876700    1.307900
