15
gdb_4299
C     -0.023300    1.523600    0.032000
C      0.003000    0.018100    0.000600
C     -0.026600   -0.672900   -1.177000
C     -0.001900   -2.120900   -1.242700
O     -0.025100   -2.815000   -2.246500
N      0.055400   -2.726300    0.030500
C      0.085500   -2.055800    1.213300
C      0.061100   -0.698500    1.239900
H      0.871300    1.917800    0.527700
H     -0.072900    1.946000   -0.973700
H     -0.887200    1.885700    0.601300
H     -0.070700   -0.161500   -2.131600
H      0.073400   -3.736300    0.009700
H      0.129000   -2.666700    2.107300
H      0.085300   -0.173100    2.185600
