10
gdb_3845
N     -0.107300    1.336200    0.008400
C      0.038100    0.076600    0.001100
N     -1.116900   -0.729700    0.003600
N     -1.156000   -2.050900   -0.003000
N     -0.053500   -2.697100   -0.012600
C      1.115600   -1.936600   -0.015600
N      1.228600   -0.653700   -0.009500
H      0.809100    1.781500    0.005400
H     -2.020800   -0.274300    0.011000
H      2.021500   -2.538400   -0.023600
