14
gdb_465
O     -0.093800    1.465100   -0.232400
C      0.047200    0.073900    0.065500
C     -1.296900   -0.704800    0.124400
C     -1.363000   -1.561800   -1.166300
C      0.048800   -1.497900   -1.697600
C      0.818000   -0.652000   -1.012700
H     -0.372500    1.531000   -1.152700
H      0.556200    0.065000    1.034800
H     -1.305600   -1.356000    1.003400
H     -2.131400   -0.007300    0.228400
H     -1.678300   -2.591200   -0.960300
H     -2.078500   -1.172900   -1.903500
H      0.371500   -2.081200   -2.554100
H      1.857300   -0.425200   -1.222700
