21
gdb_13725
C     -0.332100    1.391300    0.110400
N      0.016700   -0.020500    0.117900
C      1.382100   -0.379900   -0.246400
C      0.902300   -0.561400    1.154000
C      1.472200    0.256000    2.297100
C      0.506200    0.379700    3.482500
C      1.104300    1.144900    4.655300
O      0.130900    1.197000    5.687000
H      0.481700    2.071700    0.406600
H     -0.640900    1.666600   -0.903400
H     -1.182700    1.561500    0.778400
H      1.495900   -1.226300   -0.919500
H      2.091500    0.430800   -0.417500
H      0.609200   -1.567900    1.455200
H      2.398200   -0.232600    2.630900
H      1.768700    1.251500    1.947800
H     -0.416100    0.883800    3.171900
H      0.211600   -0.617600    3.831500
H      2.023300    0.640600    4.998200
H      1.394400    2.157900    4.329300
H      0.505200    1.678300    6.430400
