16
gdb_19598
O      0.085300    1.452500   -0.041400
C      0.112100    0.055100   -0.092700
C      0.179300   -0.632100    1.299700
O     -1.250700   -0.256300    1.439500
C     -1.288400   -0.612500   -0.001800
C     -1.051900   -2.126800    0.038100
C      0.299300   -2.679500   -0.345000
C      0.088800   -2.142000    1.049500
H     -0.538400    1.670500    0.665200
H      0.809800   -0.215100   -0.883600
H      0.808100   -0.259200    2.107900
H     -2.160400   -0.219600   -0.524300
H     -1.906600   -2.787200    0.118300
H      0.349600   -3.761900   -0.418000
H      0.940000   -2.179400   -1.060000
H      0.101400   -2.814000    1.898900
