18
gdb_1270
C      0.004900    1.375200   -0.018400
O     -0.011500   -0.045100    0.035200
C      0.580300   -0.672900   -1.001900
N      0.623700   -1.927800   -1.055200
C      1.279200   -2.536100   -2.205800
C      2.467900   -3.373100   -1.718200
C      0.261100   -3.397600   -2.962500
H      1.029600    1.767200   -0.018800
H     -0.525000    1.751900   -0.902100
H     -0.508400    1.722900    0.878900
H      1.002200    0.004300   -1.762600
H      1.660900   -1.762500   -2.897900
H      2.126700   -4.144300   -1.020800
H      2.969400   -3.860900   -2.560500
H      3.198200   -2.746600   -1.197600
H     -0.572800   -2.788400   -3.323700
H      0.730400   -3.885600   -3.822900
H     -0.146100   -4.169600   -2.302300
