9
gdb_23799
F     -0.224500   -0.154400   -0.146300
C     -0.253200    1.142600    0.216800
C     -1.586900    1.681900    0.014000
C     -1.830400    2.951000    0.315300
O     -2.060500    4.048400    0.574300
N      1.184200    4.556400   -0.573800
N      2.254400    4.774900   -0.457500
O      0.719400    1.689800    0.635100
H     -2.397500    1.081400   -0.374800
