19
gdb_9339
C      0.065400    1.469500    0.202200
C     -0.079300   -0.049300    0.096700
C     -1.543900   -0.485000    0.054500
O     -2.417100    0.205800   -0.444000
N     -1.790400   -1.711900    0.597300
C     -3.092000   -2.348100    0.558400
C     -3.004700   -3.736300   -0.058000
O     -2.092200   -4.487700    0.736700
H      1.112100    1.769700    0.100500
H     -0.522200    1.953900   -0.580100
H     -0.301900    1.834400    1.166200
H      0.385300   -0.403200   -0.833500
H      0.445800   -0.555100    0.915300
H     -1.029800   -2.264700    0.958200
H     -3.505700   -2.435100    1.571800
H     -3.750400   -1.702400   -0.026200
H     -4.003700   -4.197900   -0.066600
H     -2.653300   -3.657600   -1.097400
H     -1.933800   -5.332100    0.305400
