20
gdb_16441
C     -0.015600    1.553700    0.046400
C      0.038300    0.052500    0.014100
C     -0.864500   -0.812200    0.848000
C      0.625200   -0.951500    1.024000
C      1.279200   -1.752700   -0.122200
C      0.490200   -2.921700   -0.789200
C     -0.116200   -1.914600   -1.822900
C      0.676500   -0.753300   -1.149900
H      0.949800    1.996500   -0.225700
H     -0.765300    1.940800   -0.655500
H     -0.280600    1.918900    1.044500
H     -1.362400   -0.286300    1.657900
H     -1.469100   -1.607600    0.422400
H      1.090300   -0.761900    1.985600
H      2.358500   -1.872900   -0.025000
H      1.138700   -3.672100   -1.248300
H     -0.224200   -3.441000   -0.144900
H      0.199200   -2.109900   -2.850900
H     -1.205100   -1.814600   -1.817700
H      1.322200   -0.152900   -1.792900
