20
gdb_16835
C     -0.006600    1.572500    0.002600
C      0.047700    0.043400    0.012500
C      0.774700   -0.573400   -1.204100
C      1.286300   -1.956500   -0.734600
O      2.476900   -2.381700   -1.385900
C      1.522800   -1.795300    0.754900
C      2.280800   -0.568800    1.198400
C      0.772200   -0.566100    1.213300
H      1.002500    1.998900    0.013500
H     -0.520700    1.947000   -0.889300
H     -0.539700    1.955600    0.879300
H     -0.983100   -0.337100    0.028800
H      0.131200   -0.639400   -2.086800
H      1.642100    0.034700   -1.484700
H      0.494600   -2.710300   -0.876400
H      2.270900   -2.522300   -2.315500
H      1.579600   -2.691100    1.362500
H      2.782400   -0.626800    2.158000
H      2.817200    0.015400    0.458900
H      0.271600   -0.545300    2.175900
