13
gdb_16734
N      0.482000   -0.802300    0.735300
C      0.225700    0.255100    0.347700
C     -0.127200    1.602700   -0.188300
O     -0.909200    2.318700    0.741400
C     -0.059500    3.259500    1.368000
C      1.220700    2.758900    2.003600
C      1.205000    3.277600    0.580900
O      1.037100    2.346600   -0.470200
H     -0.700000    1.463200   -1.111700
H     -0.605100    4.121700    1.727100
H      1.672200    3.411300    2.744000
H      1.352400    1.699600    2.190800
H      1.750000    4.155400    0.261100
