20
gdb_9908
C      0.206400    1.581900   -0.310500
C     -0.011000    0.092200   -0.150500
C     -1.430900   -0.423900   -0.312800
C     -2.400500    0.111400    0.748700
C     -3.785500   -0.511900    0.637900
O     -4.609700    0.074000    1.633900
C      1.113500   -0.825800   -0.389000
O      0.709200   -0.501900    0.943600
H      1.262200    1.830500   -0.179400
H     -0.110100    1.916700   -1.304500
H     -0.367100    2.145200    0.431800
H     -1.792200   -0.163300   -1.317000
H     -1.404500   -1.518600   -0.260100
H     -1.998900   -0.092700    1.747300
H     -2.510100    1.198400    0.664300
H     -4.194100   -0.335100   -0.371600
H     -3.713000   -1.604000    0.770700
H     -5.478900   -0.334100    1.583800
H      0.920000   -1.852000   -0.700800
H      2.081600   -0.428300   -0.693200
