22
gdb_11751
C      0.057100    1.504200   -0.223900
C     -0.114100    0.001300    0.038700
C      0.638500   -0.471900    1.252300
C      2.092000   -0.859000    1.223600
C      1.075500   -1.881800    1.664000
C      0.623100   -1.631800    3.111300
C      1.612400   -1.856100    4.248900
C      0.237100   -0.165400    2.706900
H      1.109400    1.755200   -0.393100
H     -0.512600    1.820900   -1.103200
H     -0.291200    2.095800    0.629600
H     -1.182300   -0.226800    0.158200
H      0.223500   -0.565200   -0.838700
H      2.505700   -1.028400    0.233600
H      2.802200   -0.430600    1.927600
H      0.952400   -2.815000    1.124600
H     -0.291200   -2.199100    3.313500
H      2.547800   -1.311000    4.085400
H      1.195500   -1.518900    5.204600
H      1.861000   -2.918600    4.350100
H      0.800300    0.636600    3.197500
H     -0.830300    0.037400    2.830200
