20
gdb_18399
C     -0.044400    1.536900    0.062700
C      1.277000    0.811500    0.015000
C      2.219600    0.762000    1.206600
C      2.715800   -0.663200    1.509700
C      1.686100   -1.554900    2.218600
O      0.521300   -1.875200    1.480100
C     -0.364200   -0.785700    1.267200
C     -0.010700    0.025200    0.038000
H     -0.318700    2.017900    0.997500
H     -0.389700    2.062800   -0.820700
H      1.786900    0.821200   -0.945100
H      3.075400    1.419700    1.013100
H      1.729200    1.169100    2.100200
H      3.036900   -1.150800    0.581000
H      3.597200   -0.615600    2.163300
H      2.147500   -2.518500    2.460600
H      1.399400   -1.078500    3.173500
H     -1.361700   -1.224300    1.151700
H     -0.393600   -0.144300    2.161900
H     -0.292000   -0.449500   -0.897700
