14
gdb_4662
C      0.065200    1.484300    0.009500
C     -0.077400    0.005900    0.019900
C     -1.123300   -0.844300   -0.137400
C     -0.596200   -2.179500   -0.016900
C     -1.314500   -3.450500   -0.108900
O     -0.801900   -4.542500    0.003500
C      0.744400   -2.025400    0.206700
O      1.071800   -0.719700    0.231600
H      0.751500    1.815300   -0.777700
H     -0.907800    1.947500   -0.166700
H      0.455600    1.856200    0.963300
H     -2.150500   -0.566800   -0.317900
H     -2.406700   -3.348000   -0.296300
H      1.543500   -2.731500    0.358600
