16
gdb_5714
C      0.011600    1.439100    0.101200
C      1.470200    1.934000   -0.135600
C      2.232300    0.644300   -0.016900
C      3.493200    0.116600    0.101800
N      3.359500   -1.252000    0.067400
C      2.023800   -1.614200   -0.072600
C      1.322400   -0.436600   -0.129500
N      0.004100    0.018200   -0.334100
H     -0.230000    1.528700    1.171500
H     -0.727000    2.016500   -0.462300
H      1.569000    2.370900   -1.138100
H      1.749900    2.708500    0.584500
H      4.463400    0.574200    0.211100
H      4.113200   -1.902900    0.193300
H      1.728400   -2.649100   -0.110300
H     -0.714100   -0.529100    0.122800
