21
gdb_8938
C      0.011400    1.580800    0.062400
C      0.001800    0.054100   -0.034100
C     -1.404000   -0.570900    0.054200
C     -1.359900   -2.091500   -0.156000
N     -2.103200   -0.209000    1.289200
C     -1.568500   -0.610300    2.580800
C     -3.278000    0.486100    1.252200
O     -3.939200    0.819000    2.214100
H      1.029000    1.971900   -0.028200
H     -0.589900    2.031800   -0.734900
H     -0.396700    1.924900    1.017300
H      0.440600   -0.260200   -0.988600
H      0.643600   -0.377000    0.744500
H     -2.007400   -0.138700   -0.754200
H     -0.723600   -2.585500    0.585000
H     -2.362500   -2.523400   -0.088700
H     -0.951900   -2.322600   -1.144600
H     -0.579100   -0.174500    2.757000
H     -2.258900   -0.247300    3.342200
H     -1.487500   -1.699500    2.660700
H     -3.577200    0.724500    0.212600
