14
gdb_12292
O     -0.010400    0.006600    0.307900
C     -0.029800    1.192600    0.100100
C     -1.314700    2.000400   -0.004000
C     -1.194100    3.252400   -0.830000
C     -0.047200    3.741500   -1.296100
C      1.303300    3.121100   -1.060600
C      1.300700    1.976700   -0.058300
O      2.268000    1.660500    0.585500
H     -2.103900    1.336000   -0.374800
H     -1.614700    2.255500    1.025500
H     -2.124100    3.771000   -1.047200
H     -0.056100    4.652200   -1.889100
H      1.701900    2.716100   -2.005200
H      2.044300    3.858800   -0.731200
