17
gdb_18711
C      0.114400    1.535800   -0.059000
C     -0.011300    0.024200    0.061300
O      0.427300   -0.526400   -1.203900
C      0.867700   -1.808300   -1.230000
N      1.290400   -2.524400   -0.276400
C      1.352500   -1.927100    1.023200
C      2.236600   -0.708600    1.217000
C      0.737300   -0.567300    1.237200
H      1.163900    1.825600   -0.161200
H     -0.435300    1.898400   -0.931800
H     -0.292500    2.018100    0.835100
H     -1.071500   -0.247800    0.166800
H      0.847100   -2.191700   -2.248300
H      1.320400   -2.652100    1.829000
H      2.773300   -0.606600    2.153600
H      2.778400   -0.360000    0.343900
H      0.266400   -0.365900    2.195400
