16
gdb_4794
C     -0.620300    0.597500    0.279300
O      0.569200    0.827000   -0.454400
C      0.932900   -0.180400   -1.278900
C      0.392000   -1.416400   -1.558200
C      1.258200   -2.025500   -2.525700
N      1.014500   -3.272400   -3.139700
C      2.280800   -1.148800   -2.790200
N      2.059600   -0.008000   -2.019000
H     -1.476000    0.448300   -0.391500
H     -0.520700   -0.281900    0.928600
H     -0.785100    1.486100    0.890500
H     -0.512800   -1.836600   -1.151000
H      0.689900   -3.962800   -2.472900
H      1.842600   -3.637400   -3.594300
H      3.125600   -1.217200   -3.454600
H      2.643000    0.807600   -1.975800
