15
gdb_55
C     -0.008600    1.542700    0.001500
C      0.005100    0.007000    0.018600
C      0.761400   -0.518400    1.247700
C     -1.420100   -0.549300   -0.021200
O      0.625900   -0.483600   -1.176600
H      1.013600    1.940200    0.002800
H     -0.514600    1.907000   -0.897100
H     -0.522100    1.948800    0.879200
H      0.281300   -0.201700    2.179400
H      0.799700   -1.611300    1.230200
H      1.791000   -0.140700    1.260800
H     -1.938500   -0.199100   -0.918300
H     -1.399400   -1.642600   -0.045600
H     -1.988500   -0.230600    0.857300
H      1.531100   -0.154900   -1.192100
