17
gdb_6879
C     -0.118500    1.542000   -0.051300
C      0.030400    0.044200    0.077300
C      1.376600   -0.660200   -0.171100
C      2.559100    0.103700   -0.429500
N      3.515900    0.728700   -0.618500
C      0.709200   -0.632900    1.220100
C      1.345900    0.120100    2.363400
O      0.083900   -1.828000    1.589300
H      0.785600    2.076000    0.249700
H     -0.327100    1.815000   -1.090400
H     -0.949600    1.901000    0.564300
H     -0.804500   -0.531800   -0.311300
H      1.327600   -1.613600   -0.685100
H      1.842300    1.033600    2.032600
H      0.586500    0.378600    3.107600
H      2.104500   -0.503000    2.851900
H      0.732600   -2.379800    2.041800
