19
gdb_6207
C      0.010000    1.472600   -0.010800
C     -0.054500   -0.016400   -0.043800
N     -1.067400   -0.737400    0.213300
C     -0.659100   -2.150100    0.050800
C     -0.837500   -2.884900    1.385300
C     -1.513400   -2.800900   -1.044200
C      0.842400   -2.043100   -0.363300
O      1.114600   -0.628500   -0.390200
H      0.772700    1.803000    0.701400
H      0.294200    1.861300   -0.993800
H     -0.960100    1.876200    0.276800
H     -1.885200   -2.856800    1.696900
H     -0.529600   -3.933000    1.298100
H     -0.238000   -2.414200    2.170400
H     -1.396700   -2.270200   -1.994000
H     -1.223500   -3.846700   -1.195800
H     -2.571100   -2.771600   -0.768100
H      1.521700   -2.511100    0.356100
H      1.044700   -2.452000   -1.358200
