13
gdb_20741
C     -0.035600    1.500000   -0.023600
C     -0.011400    0.009600    0.006400
N     -0.027000   -0.734900   -1.097900
N      0.004400   -1.980900   -0.633700
N      0.039300   -2.132300    0.676700
C      0.030700   -0.865800    1.124000
C      0.059300   -0.527600    2.496100
C      0.082600   -0.190300    3.651000
H      0.855600    1.918000    0.455700
H     -0.076200    1.853100   -1.055400
H     -0.904500    1.890400    0.516000
H      0.001300   -2.774600   -1.253800
H      0.103700    0.093900    4.673900
