14
gdb_10671
N      0.183500    0.963500   -0.768300
C     -0.029600    0.020200    0.176600
O      0.724400   -0.192500    1.111500
C     -1.296800   -0.807300    0.010700
C     -1.102400   -2.277300    0.278200
N     -1.774400   -1.444000    1.260000
C     -2.290400   -0.357200   -0.926600
C     -3.083600    0.039400   -1.739800
H      0.990600    1.557900   -0.680700
H     -0.503900    1.149500   -1.479100
H     -1.737900   -2.978800   -0.253000
H     -0.082700   -2.595600    0.473400
H     -1.090800   -1.183800    1.973900
H     -3.807600    0.375900   -2.440400
