18
gdb_8392
C     -0.003400    1.472100   -0.039800
C      0.010200   -0.045300    0.006400
O      0.016000   -0.660500    1.049800
C      0.016100   -0.760900   -1.314400
C      1.088700   -0.660800   -2.453600
C      0.023700   -1.675800   -2.957800
C      0.030700   -2.298000   -1.530500
C     -1.059900   -0.681500   -2.452000
H      0.872900    1.844800   -0.581900
H     -0.886200    1.829100   -0.581800
H     -0.006800    1.872400    0.974700
H      1.152900    0.291500   -2.987200
H      2.078700   -1.058700   -2.215500
H      0.028100   -2.209800   -3.908100
H      0.939200   -2.821300   -1.223800
H     -0.867100   -2.838700   -1.222500
H     -2.041700   -1.098300   -2.212400
H     -1.143200    0.269400   -2.985500
