16
gdb_565
C      0.047000    1.517400   -0.120700
C     -0.006600    0.001100    0.090900
C     -1.427500   -0.549400    0.099900
C     -2.173600   -0.634600   -1.253400
O     -2.324300   -2.063600   -1.136400
C     -1.598800   -2.085400    0.109400
H      1.078500    1.882000   -0.129700
H     -0.413200    1.802300   -1.073400
H     -0.487800    2.046800    0.675700
H      0.568200   -0.504100   -0.696700
H      0.483000   -0.256000    1.039400
H     -2.017100   -0.051500    0.875900
H     -3.142600   -0.123900   -1.312400
H     -1.574300   -0.356200   -2.132100
H     -0.662700   -2.655600    0.030100
H     -2.198900   -2.504500    0.926700
