15
gdb_5544
C      0.149600    1.341600    0.063000
O     -0.435200    0.129600   -0.430600
C      0.327600   -0.587300   -1.258200
C      0.671700   -1.899200   -1.284300
C      0.353600   -2.975600   -0.304500
N      1.411300   -2.123600   -2.449700
C      1.475900   -0.974600   -3.030000
O      0.834900    0.028800   -2.376500
H      1.081100    1.129600    0.600500
H      0.349400    2.040500   -0.754700
H     -0.581900    1.774100    0.746400
H     -0.254500   -3.762400   -0.764000
H      1.267300   -3.449100    0.070200
H     -0.200000   -2.566100    0.544000
H      1.974500   -0.709800   -3.949000
