14
gdb_20654
C      0.015800    1.502800   -0.096100
C     -0.019000    0.011700    0.003200
C     -1.136700   -0.721000    0.175800
C     -1.035700   -2.153600    0.255900
N      0.057700   -2.827000    0.175800
O      1.223400   -2.086300   -0.002700
C      1.254800   -0.702400   -0.094700
N      2.362000   -0.100600   -0.257900
H      0.659400    1.919600    0.685100
H      0.462500    1.808800   -1.047300
H     -0.986300    1.928500   -0.009500
H     -2.112500   -0.254300    0.255900
H     -1.919400   -2.769400    0.394700
H      3.133700   -0.768000   -0.302200
