12
gdb_21410
N     -0.093300    1.321300    0.011000
C      0.021900    0.055600    0.003400
N      1.123400   -0.803500   -0.007700
C      0.664300   -2.101300   -0.012300
N     -0.620400   -2.184300   -0.005300
N     -1.047300   -0.860800    0.004500
C     -2.398400   -0.512100    0.014300
O     -3.301000   -1.303300    0.015200
H      0.807300    1.791400    0.008400
H      2.081100   -0.500300   -0.011800
H      1.322400   -2.956700   -0.020900
H     -2.501600    0.584000    0.021000
