18
gdb_18385
C     -0.026800    1.345200    0.403200
C      1.163200    2.254600    0.072600
C      2.515900    1.694000    0.458800
O      2.549300    0.642600    1.435900
C      3.009500    0.356800    0.109600
C      2.309900   -0.693300   -0.721600
C      0.810300   -0.741800   -0.840700
C     -0.144000    0.072100   -0.391600
H      0.011600    1.099600    1.472500
H     -0.944500    1.926300    0.258600
H      1.170200    2.498500   -0.997500
H      1.027000    3.204800    0.603700
H      3.281100    2.456700    0.621300
H      4.096600    0.251100    0.054600
H      2.741100   -0.632700   -1.733700
H      2.643000   -1.674100   -0.348500
H      0.477300   -1.621200   -1.391000
H     -1.168200   -0.228800   -0.605500
