19
gdb_9268
C      0.011000    1.469000    0.730900
C     -0.158800    0.119000    0.030600
C     -1.576200   -0.444600    0.125300
C     -1.745500   -1.739400   -0.669000
O     -1.829800   -0.665500    1.526200
C     -3.177600   -0.743700    1.897100
C     -3.892900    0.543900    1.765400
N     -4.447100    1.551600    1.653500
H      1.040300    1.828600    0.642100
H     -0.647500    2.227300    0.293500
H     -0.232500    1.387700    1.792900
H      0.097800    0.208900   -1.031600
H      0.530800   -0.619200    0.458800
H     -2.285300    0.312700   -0.243100
H     -2.757100   -2.147700   -0.580300
H     -1.560800   -1.557800   -1.732100
H     -1.038100   -2.497000   -0.317700
H     -3.735900   -1.500000    1.326000
H     -3.201000   -1.046400    2.948700
