16
gdb_11348
O      0.020700    1.412200    0.007100
C     -0.021500    0.001400    0.002400
C     -1.436300   -0.470400    0.012100
C     -2.537900    0.293400    0.023000
C     -3.754400   -0.543600    0.029500
O     -4.904600   -0.169800    0.040800
C     -3.290800   -2.012700    0.022900
C     -1.752000   -1.952400    0.010400
H      0.941400    1.688700   -0.001000
H      0.482700   -0.422000   -0.885200
H      0.497000   -0.428400    0.878600
H     -2.562000    1.373900    0.026500
H     -3.692100   -2.522600    0.903200
H     -3.706500   -2.519100   -0.852700
H     -1.317700   -2.441500   -0.870500
H     -1.303300   -2.446500    0.881300
