14
gdb_3537
C     -0.045100    1.505500    0.009700
C      1.467900    1.272100   -0.005500
C      1.216700    0.100200    0.995500
C      2.138900   -1.047400    0.643400
C      2.126500   -1.040400   -0.690900
C      1.198000    0.110600   -1.013800
N      0.015800   -0.023700    0.001200
H     -0.495800    1.918800    0.916700
H     -0.512600    1.928200   -0.884400
H      2.295000    1.994100   -0.009500
H      0.944000    0.296800    2.033100
H      2.640700   -1.708000    1.335300
H      2.615400   -1.693800   -1.398800
H      0.906200    0.318000   -2.044200
