15
gdb_4345
C     -0.067800    1.530100   -0.015100
C      0.001300    0.025400    0.012300
C      0.077200   -0.714500   -1.178800
C      0.138900   -2.095100   -1.106200
N      0.130900   -2.782100    0.044900
C      0.059000   -2.074400    1.164200
O      0.050400   -2.757100    2.329300
C     -0.007600   -0.676800    1.208700
H      0.811500    1.953500   -0.512800
H     -0.946300    1.871600   -0.573500
H     -0.122100    1.948100    0.992900
H      0.087500   -0.216600   -2.142200
H      0.198300   -2.692700   -2.012400
H      0.102400   -3.691800    2.085000
H     -0.064300   -0.173900    2.166900
