16
gdb_11389
O     -0.084600    1.466500    0.030000
C      0.038300    0.055800   -0.051200
C     -1.370000   -0.538400    0.031100
C     -1.398600   -2.078400   -0.021700
C     -2.172800   -2.523400    1.233100
O     -2.448400   -3.662700    1.527300
C     -2.497800   -1.292900    1.991300
C     -2.059300   -0.211500    1.337500
H      0.796300    1.851500    0.016200
H      0.507800   -0.253600   -0.998000
H      0.651800   -0.344200    0.772200
H     -1.943800   -0.098400   -0.795200
H     -1.883300   -2.475400   -0.917400
H     -0.394700   -2.516500    0.013700
H     -3.022500   -1.317600    2.938000
H     -2.157500    0.815900    1.667800
