17
gdb_19825
O     -0.020700    1.394300   -0.081500
C      0.058400   -0.012900    0.009300
C      0.287400   -0.573200    1.458300
C     -1.136900   -1.190800    1.436700
C     -1.366900   -0.625200    0.018600
C     -1.526800   -2.082300   -0.441600
C     -0.387300   -2.948100   -0.087200
N     -1.358200   -2.626700    0.974300
H      0.860900    1.753700    0.063100
H      0.730200   -0.422200   -0.758700
H      1.130100   -1.251800    1.614900
H      0.354900    0.246600    2.178800
H     -1.790900   -0.978500    2.281200
H     -2.179100    0.056000   -0.227400
H     -2.331800   -2.430800   -1.081400
H     -0.448600   -3.989800   -0.389000
H      0.627800   -2.566700   -0.046600
