15
gdb_11161
N     -0.026700    1.288700   -0.126100
C     -0.017500    0.028700   -0.085200
C     -1.235700   -0.868300   -0.057400
C     -0.667400   -2.230300   -0.513000
C      0.779100   -2.131100    0.026300
O      1.116000   -0.742900   -0.064900
C     -1.388900   -3.402100   -0.048800
C     -1.975900   -4.371600    0.351000
H      0.926900    1.655300   -0.117900
H     -1.616300   -0.938100    0.967200
H     -2.034200   -0.480500   -0.688700
H     -0.622000   -2.240800   -1.609000
H      0.829000   -2.458700    1.071400
H      1.501500   -2.699500   -0.562200
H     -2.499100   -5.228600    0.697100
