11
gdb_1836
O     -0.034000   -0.025600   -0.013800
C     -0.038800    1.178000    0.003200
C     -1.264000    2.105100    0.046400
N     -0.664500    3.420600   -0.006400
C      0.706600    3.392300    0.018100
O      1.477700    4.317700    0.050000
N      1.048900    2.024100   -0.009500
H     -1.918200    1.892300   -0.806300
H     -1.829400    1.919000    0.967500
H     -1.153600    4.285800    0.142500
H      2.007500    1.714700   -0.030800
