16
gdb_17698
C      0.062400    1.550800    0.031500
C     -0.025300    0.060800   -0.006700
C      0.896600   -0.996700   -0.575600
C      0.519300   -1.012500    0.911500
C     -0.747400   -1.904000    0.801200
O     -0.471000   -2.955100   -0.151800
C     -0.265000   -1.883800   -1.100100
C     -1.210100   -0.915800   -0.317700
H      1.075900    1.875500    0.290900
H     -0.188200    1.992400   -0.940100
H     -0.621700    1.974000    0.776300
H      1.918600   -0.912500   -0.920200
H      1.253100   -0.940500    1.703100
H     -1.300100   -2.227200    1.681600
H     -0.329700   -2.186500   -2.143800
H     -2.240800   -0.686300   -0.576700
