19
gdb_9258
C     -0.101800    1.308300    0.025900
N     -0.023300   -0.136300   -0.027100
C      0.541100   -0.720500    0.932100
O      0.683800   -2.060800    0.936400
C      1.211800   -2.671200    2.130500
C      0.100000   -2.890500    3.151000
C      1.851500   -3.973500    1.645600
O      0.912500   -4.821300    1.017700
H      0.403000    1.737300   -0.847300
H     -1.150500    1.621800   -0.028500
H      0.344200    1.749700    0.932700
H      0.971400   -0.216700    1.812600
H      1.997000   -2.023800    2.547000
H     -0.640000   -3.585900    2.749100
H      0.511100   -3.313800    4.072900
H     -0.396100   -1.948000    3.399900
H      2.687100   -3.727300    0.973200
H      2.256100   -4.523400    2.501500
H      0.522000   -4.309800    0.299000
