14
gdb_4759
C      0.000000    1.392500    0.022700
N      0.008700   -0.059700   -0.031200
C     -1.104400   -0.653500   -0.030600
N     -1.303300   -2.025700   -0.075100
C     -2.658600   -2.292000    0.005500
O     -3.041400   -3.583200    0.009100
C     -3.306600   -1.119500    0.049200
O     -2.359000   -0.087500    0.014500
H      1.021500    1.747600    0.183000
H     -0.364100    1.837900   -0.914300
H     -0.630200    1.786500    0.832600
H     -0.559800   -2.694700    0.015600
H     -4.001100   -3.627300    0.073700
H     -4.343200   -0.840600    0.077200
