17
gdb_12911
C      0.254000    1.415900   -0.094400
C     -0.013500   -0.052800    0.019900
C     -1.387600   -0.743300    0.123000
C     -0.740800   -1.841600    1.038900
C      0.607600   -1.126000    0.891500
N      0.897300   -1.060300   -0.530200
C      2.153400   -0.819400   -1.045100
O      3.185400   -1.282800   -0.616900
H      1.309800    1.642700    0.083700
H     -0.009300    1.792300   -1.089800
H     -0.343900    1.969100    0.636700
H     -2.120000   -0.134600    0.658500
H     -1.816000   -1.076900   -0.824700
H     -1.126900   -1.809400    2.059600
H     -0.766000   -2.869800    0.672200
H      1.427100   -1.059800    1.596800
H      2.105100   -0.209100   -1.967800
