19
gdb_20052
C      1.341600    0.064100   -0.332500
C      0.628300   -1.104100   -0.917900
N     -0.069100   -0.168900   -0.041400
C     -0.386500   -0.646400    1.297900
C     -0.552300    0.517400    2.310500
C     -1.690400    0.052200    3.186200
C     -2.328600   -0.993000    2.662300
C     -1.732900   -1.416100    1.341500
H      2.067200   -0.142100    0.453300
H      1.563600    0.938500   -0.937400
H      0.318800   -1.100200   -1.959100
H      0.879600   -2.087000   -0.521300
H      0.405900   -1.318800    1.674300
H      0.369100    0.722300    2.867400
H     -0.812800    1.442200    1.777700
H     -1.958900    0.552700    4.110100
H     -3.198400   -1.477200    3.092800
H     -2.368400   -1.105600    0.500900
H     -1.598500   -2.500100    1.252500
