14
gdb_5204
O      0.052200   -0.122300    0.263000
C      0.077000    0.966200   -0.241500
C      1.252600    1.933100   -0.087400
N      1.316400    2.907000   -1.151300
C      1.687900    2.668800   -2.460700
C      1.531300    3.864300   -3.109900
N      1.071000    4.829400   -2.244700
C      0.950200    4.223100   -1.087900
H     -0.764000    1.364900   -0.851400
H      1.125500    2.463300    0.863900
H      2.179800    1.356900   -0.017100
H      2.029200    1.698600   -2.783100
H      1.727600    4.086200   -4.147800
H      0.614100    4.672300   -0.164100
