15
gdb_4924
C      0.057700    1.385000    0.094500
N     -0.144400   -0.035400   -0.110500
C      0.577200   -0.652900   -1.111000
C      1.238900   -0.128200   -2.174900
O      1.742400   -1.210400   -2.909900
C      1.352700   -2.285900   -2.212200
N      1.778800   -3.509100   -2.666800
N      0.659200   -2.043700   -1.140300
H      1.110400    1.656000    0.275700
H     -0.282300    1.936200   -0.789800
H     -0.543400    1.717600    0.943600
H     -0.174600   -0.592800    0.730800
H      1.436200    0.849900   -2.568900
H      1.933300   -3.554500   -3.663200
H      1.229800   -4.275800   -2.307900
