17
gdb_7568
C     -0.315700    1.671900   -0.200800
C      0.053300    0.213300   -0.014000
C      1.336400   -0.332800   -0.722300
N      1.592700   -1.156700    0.487000
H      0.032800   -2.149600    0.120100
H      2.560700   -1.289800    0.759100
C      0.784100   -0.213300    1.301400
C     -1.146000   -0.709800   -0.286800
O     -2.230300   -0.299800   -0.607100
O     -0.907800   -2.026900   -0.143900
H      0.545700    2.317700   -0.004300
H     -0.667200    1.854900   -1.219500
H     -1.128200    1.955000    0.473300
H      1.217900   -0.901800   -1.649000
H      2.069400    0.470100   -0.876900
H      1.361500    0.623300    1.716800
H      0.195800   -0.680500    2.096400
