14
gdb_16197
O      0.062900    0.037400   -0.021100
C      0.005500    1.237200    0.008700
C     -1.256800    2.110600   -0.004200
C     -0.703100    3.514100   -0.006600
C      0.632700    3.548600    0.031700
C      1.200000    2.182900    0.071900
C      2.465200    1.759100    0.702200
O      2.353600    1.838100   -0.710600
H     -1.879300    1.881200   -0.877800
H     -1.870900    1.885900    0.877200
H     -1.343000    4.388200   -0.034300
H      1.249700    4.438400    0.030500
H      3.098900    2.510400    1.172500
H      2.524300    0.750900    1.109600
