18
gdb_15334
C      0.108600    1.523600    0.097800
C      0.048400    0.068900    0.077900
C      0.002000   -1.135800    0.067000
C     -0.024700   -2.571400    0.038700
C     -0.550400   -3.366300    1.225900
C     -1.332500   -3.349600   -0.053500
C     -2.649600   -2.626800   -0.129000
O     -3.654500   -3.496000    0.380200
H      1.099500    1.882000   -0.203100
H     -0.623300    1.967500   -0.586700
H     -0.093000    1.919300    1.099700
H      0.809700   -3.023000   -0.490900
H     -0.017400   -4.268400    1.503900
H     -0.944200   -2.795700    2.059400
H     -1.289700   -4.250300   -0.659000
H     -2.590300   -1.693800    0.450100
H     -2.859600   -2.348400   -1.174100
H     -4.504400   -3.058300    0.274900
