16
gdb_8639
C     -0.048400    1.476300    0.122500
N     -0.036900    0.026900   -0.051300
C      0.706100   -0.490000   -1.211600
C      2.187900   -0.026800   -1.316000
C      0.667700   -1.958900   -1.154200
C      0.682900   -3.156100   -1.073600
C     -0.002800   -0.042800   -2.439500
N     -0.522300    0.336400   -3.398600
H      0.936300    1.935700    0.300600
H     -0.488000    1.943600   -0.764000
H     -0.691900    1.712400    0.974000
H      0.307900   -0.442800    0.778100
H      2.723000   -0.345400   -0.417600
H      2.667300   -0.475100   -2.188900
H      2.245500    1.059700   -1.406200
H      0.677500   -4.216900   -1.014600
