18
gdb_7467
C     -0.147400    1.702100   -0.229500
C      0.012500    0.195800   -0.099500
C     -1.319000   -0.519300    0.211100
C     -1.976000   -0.050500    1.424300
C     -2.516700    0.341000    2.423700
C      0.841700   -0.501900   -1.210000
C      1.832500   -0.823800   -0.075900
O      1.017100   -0.140900    0.896500
H      0.819800    2.168600   -0.434800
H     -0.833900    1.949200   -1.047100
H     -0.548100    2.122600    0.696500
H     -1.990000   -0.390600   -0.649200
H     -1.119400   -1.594100    0.295900
H     -2.991000    0.680100    3.311000
H      0.362700   -1.363100   -1.680300
H      1.217500    0.166500   -1.986500
H      1.952800   -1.887700    0.163100
H      2.827000   -0.370800   -0.166800
