17
gdb_4783
C     -0.132600    1.445800    0.183400
N     -0.035200    0.062000   -0.270900
C     -1.139600   -0.760400   -0.142600
C     -1.284400   -2.102900    0.057900
C     -2.700300   -2.367200   -0.013100
C     -3.375600   -3.693700    0.141600
C     -3.292100   -1.168900   -0.238000
O     -2.344600   -0.170400   -0.321400
H      0.809400    1.952300   -0.039200
H     -0.929500    1.951800   -0.364700
H     -0.342300    1.543300    1.259500
H      0.805700   -0.403000    0.038900
H     -0.495100   -2.816900    0.234400
H     -3.160200   -4.142400    1.118400
H     -4.461300   -3.598300    0.050600
H     -3.037900   -4.407000   -0.619200
H     -4.313900   -0.848300   -0.348200
