16
gdb_14283
C     -0.051700    1.568300    0.017800
C      0.041100    0.061400    0.044700
C      1.328800   -0.710400   -0.216200
N      2.592200   -0.058200   -0.035500
C      2.722700    0.469100    1.246800
O      3.565200    1.248100    1.630700
N      1.684300   -0.077900    1.996400
C      0.711500   -0.723700    1.165500
H      0.843400    2.046500    0.422200
H     -0.185500    1.931200   -1.006900
H     -0.906600    1.915700    0.607800
H     -0.832000   -0.453500   -0.350300
H      1.323200   -1.583700   -0.858700
H      3.067900    0.422100   -0.781500
H      1.442600    0.387000    2.856100
H      0.235500   -1.607200    1.575800
