11
gdb_510
C     -0.022700    1.419800   -0.076500
N     -0.050700   -0.000300   -0.363800
C     -1.076600   -0.639100   -0.042400
O     -1.141600   -1.985000   -0.297600
C     -2.272600   -2.651900    0.064900
O     -2.405000   -3.819000   -0.122400
H      0.833900    1.638000    0.569600
H      0.131700    1.971400   -1.009700
H     -0.935400    1.798800    0.409400
H     -1.972100   -0.227400    0.442700
H     -3.026400   -1.997100    0.538300
