13
gdb_3627
O     -0.055300    1.493300    0.129100
C      1.378800    1.484000   -0.043200
C      1.991000    0.610900    1.089200
C      0.939100   -0.498300    1.094500
C      2.153600   -0.600900    0.200100
C      1.338400    0.167100   -0.885500
C      0.029500    0.061000   -0.036500
H      1.808500    2.444900   -0.320700
H      2.543900    0.904700    1.970400
H      0.679300   -1.061700    1.979700
H      2.935900   -1.342900    0.146400
H      1.398100    0.105300   -1.968800
H     -0.908500   -0.420500   -0.307200
