17
gdb_17309
C     -0.046400    1.488500   -0.011100
C     -0.055200   -0.013600   -0.014000
C     -0.928200   -0.852600    0.853600
O     -1.917400   -1.737400    0.397700
C      0.564500   -1.050700    0.952800
N      1.330000   -1.733500   -0.153600
C      0.414700   -2.255100   -1.200600
C      0.671300   -0.801300   -1.126600
H      0.957500    1.879200   -0.212800
H     -0.718300    1.886500   -0.781800
H     -0.374600    1.886500    0.953800
H     -1.260100   -0.266000    1.715900
H     -2.028300   -2.419600    1.069800
H      1.097900   -0.919500    1.888200
H      0.970500   -2.796400   -1.962400
H     -0.550400   -2.660500   -0.939600
H      1.272100   -0.273000   -1.861500
