22
gdb_17345
C     -0.096900    1.581000   -0.102400
C     -0.020100    0.073800    0.007400
C      1.275300   -0.662700   -0.238800
C      0.677400   -0.636300    1.151300
C      1.350100    0.101500    2.266900
C      0.752100    0.128000    3.657000
C      2.047500   -0.608600    3.410800
C      2.124300   -2.115800    3.520600
H      0.833200    2.063000    0.211900
H     -0.285300    1.884300   -1.138400
H     -0.905300    1.987500    0.515800
H     -0.913700   -0.430300   -0.353300
H      1.262400   -1.590000   -0.801700
H      2.163000   -0.058800   -0.404900
H      0.193800   -1.557900    1.462200
H      1.833700    1.023200    1.956000
H      0.765100    1.055300    4.219900
H     -0.135600   -0.476000    3.823100
H      2.941100   -0.104400    3.771500
H      1.194200   -2.597800    3.206400
H      2.932700   -2.522300    2.902400
H      2.312700   -2.419000    4.556600
