11
gdb_1370
N      0.117000    1.442600    0.007100
C      0.080700    0.169300    0.001400
N     -1.121100   -0.552900    0.008500
C     -2.426200   -0.080100    0.024400
O     -2.782200    1.065400    0.034800
C      1.238000   -0.690500   -0.013200
C      2.216900   -1.389700   -0.025500
H      1.086600    1.756200    0.000000
H     -1.019400   -1.556300    0.001700
H     -3.128500   -0.939300    0.025800
H      3.090300   -1.995400   -0.036300
