15
gdb_6655
C     -0.039100    1.455800   -0.153600
C     -0.097600   -0.033700    0.073000
O     -0.227300   -0.588500    1.132100
O      0.017900   -0.701400   -1.103600
C     -0.025000   -2.129200   -1.005100
C      0.122000   -2.651800   -2.436900
C      0.094700   -4.110700   -2.485400
N      0.071600   -5.265300   -2.509900
H      0.906300    1.725800   -0.632500
H     -0.844300    1.765000   -0.826000
H     -0.133200    1.970400    0.801600
H      0.785100   -2.486500   -0.363500
H     -0.970800   -2.447200   -0.558000
H     -0.686700   -2.255500   -3.059900
H      1.064100   -2.294600   -2.866000
