19
gdb_2950
O     -0.068500    1.453400   -0.096800
C      0.017400    0.039700    0.022300
C     -1.388900   -0.532600   -0.046500
C     -2.124800   -0.273300   -1.373200
C     -3.263900   -1.301600   -1.347000
C     -2.601600   -2.575600   -0.776500
C     -1.432300   -2.074000    0.121400
H      0.822100    1.813600   -0.060400
H      0.625500   -0.391800   -0.791500
H      0.493500   -0.249500    0.973700
H     -1.970900   -0.067500    0.759900
H     -2.463200    0.760200   -1.474100
H     -1.449900   -0.480800   -2.215600
H     -4.055800   -0.953200   -0.672500
H     -3.725100   -1.464800   -2.325500
H     -3.310700   -3.199900   -0.225900
H     -2.210900   -3.192300   -1.592600
H     -0.483900   -2.518600   -0.202600
H     -1.564200   -2.357200    1.169500
