16
gdb_20008
O     -0.198700    0.334100   -0.647700
C      0.199000    1.077700    0.213100
C      1.343500    2.028700    0.068100
O      2.273200    1.802000   -0.987600
C      1.442600    2.944800   -1.108400
C      0.456800    2.978700   -2.220400
C     -0.330500    4.246600   -2.460800
C      0.749000    3.842700   -3.426400
H     -0.289300    1.123700    1.212800
H      1.780600    2.361200    1.011200
H      1.954700    3.891800   -0.916400
H     -0.043000    2.034300   -2.396900
H     -1.366700    4.145400   -2.762000
H     -0.138200    5.096000   -1.813100
H      1.669500    4.417300   -3.428100
H      0.462500    3.458900   -4.398600
