13
gdb_23748
N     -0.022800    1.381800    0.169400
C     -0.009000    0.008800    0.065800
N     -1.171700   -0.641900    0.045300
C     -1.151000   -1.979800    0.003600
C      0.009500   -2.737800   -0.028500
C      1.234400   -2.061200   -0.021400
C      1.211900   -0.688800    0.027300
F      2.349900    0.028900    0.028000
H      0.801800    1.864600   -0.150000
H     -0.901500    1.807500   -0.083100
H     -2.124200   -2.463800   -0.008200
H     -0.031500   -3.819400   -0.064800
H      2.185400   -2.580600   -0.053200
