14
gdb_9143
O      0.099400    1.083200    0.885200
C     -0.058400    0.176800   -0.197800
C     -1.353000   -0.484400   -0.097600
C     -2.411000   -1.055100   -0.036400
C     -3.717100   -1.712400    0.065300
O     -3.655900   -3.031000    0.534300
C     -4.599800   -0.859500    0.986800
O     -5.105600   -1.333400    1.970700
H      0.971800    1.481700    0.802000
H      0.004700    0.695600   -1.168200
H      0.729100   -0.594200   -0.197200
H     -4.196800   -1.693800   -0.929600
H     -4.114500   -3.019500    1.390300
H     -4.726100    0.200300    0.697100
