12
gdb_8988
N      0.064100    1.093000   -0.206800
C     -0.196200   -0.099900    0.088700
O     -0.465200   -0.986100   -0.908900
C     -0.789400   -2.291600   -0.526600
C     -2.197300   -2.407200    0.049400
O     -2.899300   -1.475200    0.332600
C     -2.633900   -3.802400    0.266500
N     -2.941200   -4.905200    0.429300
H      0.259300    1.632100    0.634000
H     -0.219300   -0.547900    1.090300
H     -0.718300   -2.921800   -1.419500
H     -0.088200   -2.709600    0.214400
