11
gdb_556
N     -0.291400   -1.176800   -0.261700
C     -0.119000   -0.042100   -0.127300
C      0.080000    1.399700    0.056300
C     -0.188700    1.951000    1.482200
C      1.315100    2.292000    1.471500
O      1.468900    1.765900    0.129100
H     -0.436300    1.928600   -0.753800
H     -0.868100    2.802500    1.509400
H     -0.502000    1.205700    2.212000
H      1.565700    3.357000    1.515500
H      1.931600    1.744500    2.192100
