18
gdb_13606
C     -0.128400    1.282100   -0.159200
N      0.124400   -0.143300   -0.084800
C      0.766700   -0.804400   -1.101200
O      1.019500   -0.309200   -2.183200
N      1.161800   -2.105200   -0.744600
C      0.249300   -3.141000   -0.276000
C      0.944000   -3.256900   -1.600500
C      0.168800   -3.152900   -2.892900
H      0.627100    1.869600    0.378900
H     -0.099900    1.565800   -1.211600
H     -1.114400    1.518600    0.252800
H      0.135900   -0.579200    0.822800
H      0.582500   -3.718200    0.583200
H     -0.816600   -2.921300   -0.297000
H      1.810300   -3.915500   -1.646200
H     -0.737400   -2.553500   -2.772300
H      0.774000   -2.680500   -3.670100
H     -0.120600   -4.153700   -3.230300
