18
gdb_8086
C     -0.114800    1.515800   -0.004800
C      0.089000    0.024300   -0.104800
C      1.311600   -0.588500   -0.854200
C      1.076100   -1.818600    0.062200
C      0.524300   -0.830500    1.126900
O      0.027300   -2.607400   -0.502800
C     -1.209600   -1.929000   -0.455400
O     -1.092600   -0.544200   -0.698200
H      0.786300    2.000000    0.382700
H     -0.338900    1.934700   -0.990700
H     -0.952300    1.747600    0.660600
H      1.200700   -0.746800   -1.928200
H      2.245800   -0.067200   -0.627100
H      1.894200   -2.497200    0.306100
H      1.342000   -0.342900    1.661900
H     -0.225600   -1.168300    1.844600
H     -1.845300   -2.348100   -1.240000
H     -1.686200   -2.096200    0.523900
