17
gdb_4926
C     -0.027700    1.401200   -0.017100
O      0.029700   -0.008100   -0.046100
C      0.634700   -0.585300    1.025800
C      1.198700    0.009000    2.134600
N      1.678400   -1.018100    2.929400
C      1.429600   -2.233700    2.348200
C      1.840700   -3.517400    2.990800
C      0.778400   -1.995000    1.157300
H      0.979000    1.842700    0.011600
H     -0.534300    1.717900   -0.930700
H     -0.592500    1.761400    0.854800
H      1.302100    1.039200    2.426200
H      2.143800   -0.887400    3.809700
H      1.371000   -3.658600    3.972500
H      1.545900   -4.359600    2.360900
H      2.926600   -3.578500    3.137300
H      0.438200   -2.736500    0.451700
