17
gdb_6924
C     -0.196400    1.406800    0.332500
C      0.063300   -0.058400    0.082400
O     -1.065100   -0.798900   -0.298000
C      1.396300   -0.529200   -0.462900
C      0.987000   -0.855800    0.959200
N      1.704400   -0.234600    2.032500
C      1.120200    0.112400    3.216300
O     -0.066600    0.069600    3.448800
H      0.705500    1.917500    0.678000
H     -0.528800    1.900100   -0.589000
H     -0.972400    1.520100    1.093400
H     -1.353100   -0.474300   -1.158400
H      1.393900   -1.345000   -1.176200
H      2.179100    0.209800   -0.602000
H      0.650900   -1.872500    1.147000
H      2.712500   -0.262300    2.003600
H      1.872800    0.462400    3.952600
