18
gdb_16310
C     -0.257100    1.534700   -0.052700
C      0.087000    0.044200    0.082700
C      0.796500   -0.489800   -1.132300
C      0.065200   -0.960900   -2.388000
C      0.979400   -1.923400   -1.718000
C      2.424200   -1.619600   -2.141500
C      2.229800   -0.223800   -1.488900
O      2.997300    0.645200   -1.177200
H      0.651400    2.121400   -0.214300
H     -0.927900    1.709000   -0.900400
H     -0.749600    1.905900    0.851100
H      0.723900   -0.102600    0.963700
H     -0.825500   -0.539900    0.255300
H     -0.999100   -1.108200   -2.229700
H      0.315300   -0.557600   -3.366100
H      0.641500   -2.846200   -1.265100
H      3.188800   -2.181300   -1.597300
H      2.642700   -1.660600   -3.212900
