17
gdb_21040
C      0.051600    1.367400   -0.058700
N     -0.005500   -0.071400    0.034400
N      0.044900   -0.807400   -1.113100
C      0.079800   -2.069800   -0.700200
N      0.195700   -3.117900   -1.616500
C      0.050700   -2.158800    0.711400
C     -0.000400   -0.848000    1.148100
C     -0.038200   -0.293600    2.535200
H      1.085300    1.734600   -0.085100
H     -0.449500    1.672100   -0.978700
H     -0.459600    1.818400    0.794700
H     -0.028200   -2.810300   -2.554600
H     -0.363500   -3.923600   -1.369800
H      0.066000   -3.045300    1.325300
H      0.834400    0.333000    2.754000
H     -0.931400    0.317300    2.711700
H     -0.048900   -1.111500    3.258600
