15
gdb_19685
O     -0.176000    0.048900    0.312600
C     -0.026800    1.195900   -0.022800
C      1.267600    1.959200    0.062000
C      1.502300    2.911400    1.268800
C      1.354000    1.960400    2.488300
C      2.572200    1.234500    1.923700
C      2.998200    2.424200    1.152900
N      2.515400    1.219200    0.416200
H     -0.880100    1.801400   -0.413700
H      1.435700    2.484500   -0.886100
H      1.123300    3.930800    1.288100
H      1.611700    2.473600    3.418000
H      0.416200    1.411200    2.609400
H      3.170200    0.453400    2.372400
H      3.946000    2.912500    0.971500
