16
gdb_3049
O     -0.162200    0.401900   -0.784400
C      0.032100    1.243900    0.066900
N      1.238500    1.551100    0.612700
C      2.488200    0.926300    0.202800
C      3.535200    1.947600   -0.178000
C      4.374300    2.606600    0.893300
C      4.995900    1.607300   -0.050300
H     -0.779600    1.864200    0.497700
H      1.278000    2.289900    1.297200
H      2.874100    0.287200    1.009600
H      2.238500    0.275400   -0.638700
H      3.255700    2.573800   -1.020700
H      4.630400    3.653800    0.778800
H      4.222600    2.296800    1.923000
H      5.256800    0.631600    0.346600
H      5.674800    1.970000   -0.813400
