17
gdb_20891
C     -0.325900    1.502800    0.221900
C      0.206500    0.097300   -0.061700
N      0.771400   -0.539900    1.118500
C      0.142700   -1.157000    2.149300
C      1.152400   -1.515100    3.013700
C      1.089200   -2.235700    4.320600
N      2.332600   -1.097000    2.469600
N      2.100300   -0.508500    1.330400
H      0.473300    2.143900    0.602700
H     -0.718200    1.945600   -0.698400
H     -1.132300    1.480600    0.960700
H     -0.584300   -0.550100   -0.453200
H      1.012300    0.129100   -0.797900
H     -0.926000   -1.290800    2.178600
H      1.630100   -3.186500    4.273300
H      1.547800   -1.641600    5.117200
H      0.054800   -2.446700    4.603600
