14
gdb_13229
N      0.316100   -1.121800    0.814700
C      0.225900   -0.007900    0.522900
C      0.093200    1.403700    0.140700
N      1.398400    2.061300    0.125700
C      1.810400    2.511000   -0.969900
C      3.058100    3.234400   -1.422900
C      2.371100    3.197600   -2.803900
O      1.224400    2.499700   -2.218500
H     -0.437400    1.450800   -0.818900
H     -0.537300    1.895400    0.891000
H      3.199200    4.222200   -0.982200
H      3.978100    2.656400   -1.327100
H      2.065800    4.158800   -3.222300
H      2.848300    2.581000   -3.568100
