15
gdb_2182
C      0.036900    1.637100   -0.008100
C      0.131300    0.119200   -0.012200
C      0.808800   -0.637700   -1.200000
O      1.690000    0.243000   -1.865100
C      1.533000   -1.583200   -0.189900
C      1.143300   -0.580400    0.913100
O      1.536100   -0.366300    2.022000
H      0.993800    2.083400   -0.284600
H     -0.721000    1.989900   -0.713900
H     -0.234200    1.989300    0.991400
H     -0.851500   -0.333400    0.177200
H      0.122500   -1.125900   -1.901900
H      2.230300   -0.272600   -2.472000
H      1.035300   -2.549300   -0.055400
H      2.602200   -1.746300   -0.347600
