17
gdb_10280
C      0.313400    1.513400    0.506900
C      0.359500   -0.006000    0.349800
C      0.412100   -0.467800   -1.128900
C      1.628900   -0.032200   -1.806100
C      2.642900    0.317800   -2.352200
C      0.149200   -1.995600   -1.200400
N      1.018700   -2.717000   -1.948300
O     -0.802300   -2.480100   -0.619800
H      1.195300    1.987600    0.065400
H     -0.573100    1.934800    0.019800
H      0.275100    1.790300    1.564600
H      1.231400   -0.413700    0.874200
H     -0.526800   -0.472100    0.787200
H     -0.449700   -0.019800   -1.643800
H      3.530600    0.643800   -2.836100
H      1.810900   -2.284300   -2.392100
H      0.880000   -3.711300   -2.016600
