20
gdb_12923
C      0.106700    1.371800   -0.390800
C     -0.013200    0.002400    0.287800
C     -1.403600   -0.590100    0.186100
C     -2.007300   -1.179200   -1.084900
C     -0.969000   -2.030900   -1.801300
O     -0.656800   -2.754600   -0.582200
C     -1.705300   -2.058600    0.118600
C     -2.532400   -2.861700    1.068500
H      1.120600    1.773600   -0.298000
H     -0.132900    1.304500   -1.457300
H     -0.581600    2.098600    0.055000
H      0.709100   -0.699200   -0.141100
H      0.252400    0.093700    1.348900
H     -2.162700   -0.049300    0.751200
H     -2.952100   -0.852900   -1.499700
H     -1.400900   -2.707800   -2.547500
H     -0.090000   -1.531900   -2.226900
H     -1.919500   -3.215200    1.905800
H     -3.344300   -2.254200    1.478500
H     -2.963900   -3.737100    0.572800
