15
gdb_15858
C     -0.055100    1.567700    0.051300
C      0.016500    0.049700    0.001000
C      0.705200   -0.585100   -1.242200
C      1.749200   -1.161600   -0.270300
O      2.722000   -1.845300   -0.348200
N      1.090500   -0.560100    0.829100
C      1.276700   -0.578600    2.198700
O      2.180600   -1.127800    2.771400
H      0.919700    2.011100   -0.174200
H     -0.780600    1.933000   -0.682400
H     -0.372100    1.920600    1.037600
H     -0.958900   -0.395400    0.222200
H      0.128500   -1.343400   -1.774300
H      1.115500    0.130300   -1.958100
H      0.473400   -0.015500    2.717200
