19
gdb_6192
C     -0.268200    1.591900    0.029900
C      0.064800    0.098400    0.017600
C     -1.220900   -0.742600   -0.062000
C      1.015100   -0.275800   -1.141100
O      1.733700   -1.439900   -0.705700
C      1.727800   -1.511700    0.662000
N      2.301200   -2.412700    1.334500
C      0.928900   -0.353000    1.214700
H      0.637300    2.203700    0.102100
H     -0.801400    1.885200   -0.881500
H     -0.910700    1.842200    0.880400
H     -1.802100   -0.485300   -0.954000
H     -0.995800   -1.813000   -0.103500
H     -1.854300   -0.566800    0.813500
H      0.494800   -0.530400   -2.068400
H      1.731200    0.530300   -1.349400
H      2.785100   -3.065700    0.715000
H      1.621400    0.442000    1.517400
H      0.360700   -0.650300    2.097200
