15
gdb_21253
C      0.014200    1.422600    0.077200
O      0.051300   -0.006300   -0.020600
C      0.618500   -0.667700    0.980000
C      0.794400   -2.008300    1.156500
C      1.458800   -2.080200    2.411000
C      1.920500   -3.298300    3.145100
N      1.663700   -0.894100    2.940900
O      1.117200    0.023700    2.009600
H      1.025200    1.836500    0.130100
H     -0.484100    1.762900   -0.830100
H     -0.550600    1.738800    0.958900
H      0.497000   -2.804400    0.497000
H      2.639900   -3.865500    2.545700
H      2.396000   -3.010500    4.084700
H      1.079100   -3.963200    3.365400
