13
gdb_10590
C      0.147800    1.529100    0.021900
C      0.039500    0.033600    0.116100
O      1.195000   -0.742700   -0.142700
C      0.698600   -0.790600    1.190800
C      1.534700   -0.134900    2.269700
O      2.371800    0.695400    2.045300
C      0.065600   -2.032600    1.593600
N     -0.433600   -3.008600    1.959300
H      1.079100    1.887000    0.460400
H      0.120700    1.820000   -1.033300
H     -0.703400    2.001300    0.521900
H     -0.879000   -0.406200   -0.276500
H      1.295100   -0.482300    3.295500
