13
gdb_5443
N      0.083000    1.392700    0.153200
C      0.001100    0.007400    0.031900
C     -1.078800   -0.857400   -0.003100
N     -0.629700   -2.173800   -0.032000
C      0.671200   -2.099400   -0.023900
N      1.112100   -0.795800    0.016700
C     -2.436900   -0.470900   -0.003300
C     -3.580400   -0.088000   -0.006500
H      0.582200    1.837000   -0.610700
H     -0.848100    1.790000    0.209900
H      1.357400   -2.932100   -0.058600
H      2.062900   -0.478900    0.108500
H     -4.594400    0.225500   -0.004400
