9
gdb_3822
N     -0.014000   -1.103200   -0.003300
C     -0.013000    0.052400    0.003100
C     -0.001300    1.479000    0.010900
N     -1.126600    2.187800    0.029800
N     -0.653500    3.445900    0.030500
C      0.697900    3.449600    0.012500
N      1.150500    2.214300   -0.000300
H     -1.299200    4.219900    0.043300
H      1.290300    4.351800    0.009700
