14
gdb_16090
N     -0.013500   -1.124400    0.079800
C      0.015200    0.030900    0.043000
C      0.030300    1.468000   -0.051900
C     -0.939300    2.145700   -1.030900
C     -0.194000    3.392500   -1.454700
C      1.040900    3.440000   -0.947600
C      1.297900    2.289800   -0.031300
N      0.440300    2.191100    1.162300
H     -1.143300    1.488500   -1.884500
H     -1.908700    2.361500   -0.564900
H     -0.647200    4.149600   -2.083600
H      1.774300    4.216200   -1.127200
H      2.283300    1.849500    0.073500
H     -0.117000    3.038400    1.261600
