18
gdb_14838
C      0.080400    1.539500   -0.141900
C      0.022500    0.009300   -0.170100
C     -1.376500   -0.527300    0.118200
C     -2.383400   -0.434500   -1.062800
N     -2.110800   -1.856200   -1.378200
C     -1.557300   -2.078400   -0.027800
C     -0.372500   -2.936700    0.034700
N      0.564600   -3.609600    0.107100
H      1.090800    1.896400   -0.361000
H     -0.594200    1.982500   -0.882600
H     -0.205100    1.928900    0.841700
H      0.356600   -0.362900   -1.145800
H      0.721200   -0.399500    0.569500
H     -1.744700   -0.138200    1.070300
H     -3.409100   -0.228500   -0.728300
H     -2.132400    0.255100   -1.875400
H     -2.910100   -2.430900   -1.619900
H     -2.283600   -2.456900    0.706000
