18
gdb_14641
C      0.035300    1.510200    0.009700
C      0.030200    0.054000    0.002100
C      0.036200   -1.150100   -0.004300
C      0.009900   -2.608300   -0.011900
C     -1.419300   -3.184300   -0.001400
C     -1.417200   -4.725600   -0.009700
C     -2.759200   -5.294000    0.000200
C     -3.876600   -5.736700    0.008400
H      1.057500    1.904800    0.001900
H     -0.481500    1.916300   -0.867000
H     -0.464400    1.907000    0.900400
H      0.545200   -2.983000   -0.895500
H      0.562000   -2.992500    0.857100
H     -1.953000   -2.824400    0.883500
H     -1.969800   -2.814900   -0.871900
H     -0.874400   -5.086300   -0.893800
H     -0.857500   -5.095700    0.859900
H     -4.859500   -6.137900    0.014800
