19
gdb_1247
C      0.021100    1.560000    0.057600
C      0.038900    0.025200    0.044000
C      0.802500   -0.516200    1.260200
C     -1.399600   -0.520300   -0.042000
C     -1.496500   -2.041300   -0.261000
C     -2.933600   -2.505200   -0.294900
O     -3.452000   -3.097500   -1.205900
H      1.037400    1.966500    0.077600
H     -0.484500    1.962500   -0.826300
H     -0.504100    1.938000    0.943000
H      0.570700   -0.297600   -0.862500
H      0.902700   -1.605400    1.238300
H      1.812900   -0.097100    1.300700
H      0.293900   -0.244400    2.193300
H     -1.941500   -0.247700    0.874900
H     -1.919400   -0.015300   -0.865800
H     -1.009400   -2.345000   -1.192600
H     -1.006200   -2.567500    0.569600
H     -3.516700   -2.244500    0.621100
