21
gdb_13723
C      0.268900    1.551300    0.011600
C      0.009200    0.054900   -0.036200
O      0.635700   -0.474500   -1.185200
C      0.448700   -1.866900   -1.330000
C      1.164400   -2.306000   -2.579700
N      2.554600   -2.769800   -2.437300
C      1.521400   -3.718300   -2.885600
C      1.220600   -4.894900   -1.985900
H      1.343000    1.751800    0.056100
H     -0.133600    2.039000   -0.880900
H     -0.204900    1.993500    0.893100
H      0.401500   -0.434600    0.871700
H     -1.075700   -0.148700   -0.064800
H      0.844800   -2.404400   -0.455800
H     -0.628600   -2.100000   -1.408200
H      0.933500   -1.672200   -3.434800
H      3.120500   -2.450200   -3.218300
H      1.514400   -3.967000   -3.946900
H      1.286600   -4.617600   -0.931800
H      0.217600   -5.290300   -2.181000
H      1.939200   -5.702600   -2.162000
