16
gdb_16195
O      0.076200    0.046500    0.005800
C      0.021300    1.252000    0.012000
C     -1.253900    2.112400    0.031900
C     -0.720500    3.522200    0.030900
C      0.615900    3.555000    0.013800
C      1.195700    2.192600    0.000500
C      2.469400    1.775800    0.727300
C      2.450000    1.782000   -0.762500
H     -1.879500    1.875300   -0.838300
H     -1.857000    1.868000    0.915800
H     -1.364100    4.393100    0.042800
H      1.224100    4.452200    0.009600
H      3.014300    2.555100    1.248600
H      2.426100    0.815200    1.229400
H      2.393600    0.825600   -1.271200
H      2.981300    2.565600   -1.291300
