16
gdb_12439
O      0.064700    0.218700    0.865000
C      0.032200    1.205200    0.178600
C     -1.325400    1.845100   -0.141100
C     -1.483900    2.931000   -1.220900
C     -0.643500    4.147500   -0.937700
C      0.685200    4.065700   -0.911500
C      1.371600    2.764300   -1.217800
O      1.213900    1.736500   -0.214400
H     -1.987300    1.000200   -0.352600
H     -1.662300    2.250000    0.821100
H     -1.226500    2.514300   -2.203900
H     -2.543100    3.198200   -1.273800
H     -1.145500    5.083700   -0.709700
H      1.302300    4.924900   -0.668900
H      1.035700    2.363400   -2.182600
H      2.453400    2.892800   -1.276100
