17
gdb_12507
C      0.500300    1.445700    0.170700
C     -0.046100    0.068100   -0.075800
C      0.025900   -0.563100   -1.248200
C     -0.511100   -1.960100   -1.479000
N     -0.082700   -3.007300   -0.554300
C      0.135600   -2.858900    0.678100
O      0.008000   -1.808000    1.529300
C     -0.704200   -0.640400    1.086800
H      1.270300    1.430200    0.952900
H      0.941600    1.870600   -0.734400
H     -0.284500    2.129400    0.519800
H      0.499700   -0.072000   -2.095800
H     -1.612700   -1.943300   -1.508500
H     -0.207600   -2.292300   -2.476900
H      0.509800   -3.707800    1.252100
H     -0.746600   -0.001100    1.971200
H     -1.732500   -0.932600    0.834900
