13
gdb_4379
O      0.126100    1.306800   -0.012000
C      0.085200   -0.041300   -0.035400
C     -0.028500   -0.696900   -1.260700
C     -0.066400   -2.086100   -1.231100
C      0.007000   -2.770400   -0.023500
C      0.118700   -2.000700    1.133800
O      0.193200   -2.618900    2.330300
N      0.157600   -0.669100    1.137400
H      0.205200    1.560000    0.917500
H     -0.082900   -0.128000   -2.178900
H     -0.154200   -2.641300   -2.159200
H     -0.019200   -3.849700    0.041700
H      0.264700   -1.919300    2.993400
