15
gdb_20227
C     -0.053500    1.646500    0.064700
C      1.441600    1.951100   -0.026800
C      2.087200    0.812000    0.298000
C      2.363300   -0.263200   -0.717400
C      1.674900   -1.311800    0.050700
C      1.164100   -0.224900    1.024500
C      0.024200    0.087100    0.064200
N      0.865400   -0.650300   -1.028700
H     -0.603000    1.977800    0.957600
H     -0.556800    2.089900   -0.801800
H      1.819000    2.663500   -0.753900
H      3.021700   -0.317000   -1.574500
H      1.811000   -2.382800    0.124500
H      1.097200   -0.258100    2.110900
H     -0.927300   -0.445600    0.138400
