18
gdb_16105
C      0.021000   -1.204400   -0.279100
C      0.026900   -0.012600   -0.109900
C      0.016200    1.401900    0.112300
C      0.248800    2.341000   -1.064000
C      1.287400    2.249300    0.017700
C      1.249900    3.279100    1.134800
C     -0.237800    3.362500    1.550100
C     -0.817200    1.957600    1.271900
H      0.019800   -2.254500   -0.433700
H      0.478800    1.869200   -2.011900
H     -0.368600    3.229800   -1.145700
H      2.229500    1.770800   -0.223700
H      1.862700    2.922600    1.971100
H      1.650600    4.253100    0.833100
H     -0.362700    3.661200    2.593900
H     -0.757100    4.113500    0.946900
H     -1.888400    1.980500    1.047900
H     -0.680800    1.302400    2.139100
