13
gdb_15855
O      0.006100    1.376000   -0.202100
C      0.030400   -0.010300    0.009700
C      0.197100   -0.408800    1.510600
C     -1.329200   -0.540100    1.597500
O     -2.127600   -0.573000    2.476500
C     -1.445400   -0.534600    0.035700
C     -2.489800    0.228900   -0.611500
N     -3.337900    0.831100   -1.114500
H      0.900000    1.720400   -0.107000
H      0.684000   -0.530300   -0.698600
H      0.692200   -1.373800    1.662200
H      0.651700    0.339000    2.163800
H     -1.481100   -1.577500   -0.300700
