22
gdb_11561
C      0.011500    1.516100    0.266200
C     -0.007000    0.019500   -0.070900
C     -1.438500   -0.519600   -0.064500
O     -1.985300   -0.343200    1.235300
C      0.667200   -0.297200   -1.419100
C      2.145300    0.031100   -1.474800
C      3.158000   -0.934600   -0.910100
C      3.058200   -0.729200   -2.402600
H      1.031600    1.888800    0.392900
H     -0.463100    2.100800   -0.532300
H     -0.537400    1.702000    1.191900
H      0.536600   -0.519200    0.717400
H     -2.036100    0.015500   -0.822100
H     -1.432300   -1.585400   -0.345400
H     -2.908000   -0.611800    1.212900
H      0.540700   -1.366100   -1.639800
H      0.142300    0.243400   -2.220500
H      2.383000    1.083800   -1.351700
H      4.023900   -0.538500   -0.391100
H      2.790300   -1.871900   -0.504200
H      2.625800   -1.528900   -2.995700
H      3.855000   -0.189800   -2.903100
