18
gdb_12289
C      0.148300    0.959100   -0.404400
O     -0.416100    0.027800    0.506100
C      0.523600   -0.524500    1.401200
C     -0.104500   -1.398700    2.505700
C      0.973900   -2.490300    2.214200
O      0.574000   -3.823700    2.115600
C      1.284900   -1.779100    0.859100
O      0.555300   -2.395000   -0.187900
H      0.918200    0.497500   -1.037700
H     -0.664300    1.321400   -1.037800
H      0.594500    1.810300    0.128600
H      1.200000    0.250300    1.783400
H     -0.160900   -0.980300    3.512000
H     -1.096900   -1.743100    2.203400
H      1.812900   -2.433600    2.914700
H      0.205300   -3.906600    1.223300
H      2.332800   -1.677500    0.560200
H     -0.191900   -1.806200   -0.374500
