16
gdb_17004
C      0.072700    1.606300   -0.271100
C      1.298000    0.783200    0.008300
C      1.909000    0.638000    1.385700
C      0.915500   -0.347600    2.085500
O     -0.345000   -0.243100    1.381300
C     -0.054000    0.140400    0.080400
C      0.466000   -0.768800   -1.038200
O      1.710000   -0.007300   -1.122100
H     -0.234700    2.284100    0.517100
H     -0.120300    1.942500   -1.285500
H      2.917700    0.223500    1.329500
H      1.961800    1.593700    1.914000
H      1.289500   -1.378800    2.023100
H      0.726400   -0.113900    3.136900
H      0.651200   -1.794000   -0.698700
H     -0.076600   -0.781600   -1.990000
