15
gdb_18746
C     -0.047500    1.553300    0.080500
N      0.094700    0.115200    0.137800
C     -1.125500   -0.708100    0.314200
C     -0.418100   -1.519500    1.412200
O      0.482700   -2.551600    0.909400
C      1.572800   -1.695800    0.915200
O      2.696300   -1.954600    0.640200
C      0.724200   -0.485200    1.341000
H      0.941200    2.020900    0.047300
H     -0.576600    1.828300   -0.837400
H     -0.605100    1.978100    0.936700
H     -1.970100   -0.139600    0.732300
H     -1.454200   -1.251400   -0.576600
H     -0.952300   -1.852900    2.298200
H      1.068100    0.181600    2.132600
