16
gdb_6450
O      0.082200    1.455600   -0.065700
C      0.036300    0.049900   -0.030200
C      0.261100   -0.566700    1.382600
C     -1.283200   -0.627800    1.555400
O     -1.666100    0.616000    2.157900
C     -1.403000   -0.548200   -0.001600
C     -1.887300   -1.760200    2.238400
C     -2.410700   -2.693900    2.786800
H     -0.473500    1.767100    0.661000
H      0.693300   -0.301500   -0.827900
H      0.697900   -1.566200    1.339800
H      0.788900    0.045700    2.116200
H     -2.629700    0.657900    2.154800
H     -2.207600    0.080200   -0.391900
H     -1.453200   -1.541600   -0.453900
H     -2.862800   -3.520000    3.278200
