18
gdb_13102
C     -0.022200    1.348000    0.486000
C     -0.163200    0.385300   -0.690800
N     -1.560000    0.012100   -0.884000
C     -1.824800   -1.053400   -1.505700
N     -1.126000   -2.082000   -2.126900
C     -2.285000   -3.000700   -2.112100
C     -3.157500   -1.772000   -1.699200
O     -3.927100   -1.914400   -0.535900
H      1.020000    1.655000    0.619500
H     -0.630900    2.241500    0.320200
H     -0.364600    0.877200    1.412700
H      0.213900    0.867000   -1.605000
H      0.476600   -0.498400   -0.521800
H     -0.159500   -2.332000   -1.972400
H     -2.497000   -3.469300   -3.076600
H     -2.258600   -3.751900   -1.316900
H     -3.757600   -1.382200   -2.531300
H     -3.687900   -1.172700    0.034200
