17
gdb_13952
N     -0.103600   -1.126900    0.344900
C     -0.082600    0.008900    0.133300
C     -0.029600    1.448600   -0.141000
C      1.382600    1.985300   -0.127300
C      2.077500    2.409600    1.135600
C      1.876300    3.425000    0.041300
C      2.919800    3.215100   -1.062700
C      2.420000    1.741700   -1.233600
H     -0.503900    1.628000   -1.114100
H     -0.641300    1.965400    0.607800
H      1.434900    2.527500    2.002900
H      3.073200    2.038400    1.368500
H      1.301100    4.328700    0.206700
H      2.735100    3.819300   -1.953200
H      3.963000    3.349700   -0.760100
H      3.141300    0.941300   -1.044100
H      1.964700    1.573500   -2.212900
