15
gdb_20439
C      0.012300    1.530700   -0.043700
C      1.518400    1.898000    0.024300
N      2.069700    0.699800    0.639500
N      3.271100    0.440100    1.169300
N      3.244000   -0.820600    1.528800
C      2.028200   -1.360500    1.217400
C      1.256800   -0.379600    0.638000
C     -0.049600   -0.029900   -0.006000
H     -0.496100    1.934500    0.835900
H     -0.471600    1.949800   -0.927600
H      1.961300    2.048800   -0.966200
H      1.725700    2.779600    0.633600
H      1.800000   -2.390900    1.434800
H     -0.918800   -0.391900    0.548400
H     -0.113700   -0.451700   -1.016000
