19
gdb_1338
C     -0.072100    1.540600   -0.242700
C     -0.004400    0.078900    0.216000
C     -1.360500   -0.595300    0.189700
C     -1.905800   -1.239300   -1.076600
C     -1.565500   -2.080900    0.133700
C     -0.419200   -3.066200    0.097900
O     -2.646800   -2.510600    0.928400
H      0.915900    2.010900   -0.219300
H     -0.458000    1.613300   -1.264900
H     -0.736000    2.125500    0.403200
H      0.698800   -0.466600   -0.424100
H      0.409000    0.033200    1.232100
H     -2.115800   -0.096500    0.792400
H     -2.955500   -1.098500   -1.309400
H     -1.248900   -1.293700   -1.940400
H      0.417900   -2.702700   -0.503000
H     -0.057100   -3.271200    1.110700
H     -0.747000   -4.017500   -0.340200
H     -3.031800   -3.285200    0.502800
