9
gdb_769
N     -0.025000    1.345800    0.157600
C     -0.014500   -0.022400    0.049800
N     -1.106400   -0.783700    0.036300
N     -0.547900   -1.997200   -0.015000
N      0.767500   -2.006700   -0.035700
N      1.136300   -0.749600    0.003700
H      0.819400    1.784100   -0.178400
H     -0.869100    1.787600   -0.173700
H     -1.093600   -2.844700   -0.036300
