13
gdb_580
O      0.326900   -0.126900   -0.211100
C      0.124400    1.058300   -0.255600
C      1.155400    2.121100    0.072400
C      1.309300    3.122200   -1.056800
C      2.624500    3.751400   -1.326400
N      2.065100    2.763600   -2.266500
H     -0.870700    1.460900   -0.557000
H      0.815800    2.646600    0.977300
H      2.104500    1.626000    0.302300
H      0.412400    3.700700   -1.272500
H      2.677200    4.767600   -1.706500
H      3.462100    3.459600   -0.697800
H      2.522100    1.863500   -2.135200
