13
gdb_11198
O     -0.112600   -0.036000    0.001400
C     -0.034400    1.176100    0.010600
C      1.206900    1.918800    0.002300
C      1.314700    3.267300    0.011700
N      2.633300    3.669300   -0.000400
C      3.507900    2.570300   -0.018600
O      4.708500    2.645800   -0.032800
C      2.597200    1.336100   -0.018600
H     -0.948400    1.813200    0.026000
H      0.520800    4.002600    0.026600
H      2.962300    4.621500    0.003000
H      2.817300    0.707900    0.850700
H      2.797200    0.722400   -0.903000
