16
gdb_11009
C     -0.028400    1.520100    0.004600
C      0.003600    0.013800    0.007100
C      0.669100   -0.751500   -1.073400
N      1.299700   -0.651200    0.269800
C      1.011900   -1.830600    1.057700
O      1.831100   -2.629800    1.428700
N     -0.340800   -1.868100    1.299200
C     -1.076300   -0.725600    0.805900
H      0.837100    1.922900   -0.526600
H     -0.935800    1.887200   -0.488200
H     -0.013900    1.912700    1.026800
H      0.262600   -1.717100   -1.363700
H      1.202600   -0.222100   -1.857000
H     -0.732500   -2.585100    1.886500
H     -1.445900   -0.087000    1.620300
H     -1.936700   -1.015800    0.189900
