15
gdb_21139
C     -0.008400    1.438100   -0.076800
N     -0.003100   -0.012300   -0.044600
C     -1.090000   -0.641000    0.042600
O     -2.384900   -0.115900    0.133300
C     -3.206900   -1.194900    0.240400
N     -2.613600   -2.328200    0.215800
N     -1.281800   -2.005400    0.072900
C     -0.249000   -3.010200    0.074300
H      0.867900    1.812200    0.462200
H      0.070700    1.803100   -1.109800
H     -0.905000    1.888000    0.369100
H     -4.266100   -1.021200    0.331500
H     -0.449800   -3.762100   -0.693800
H      0.690000   -2.500000   -0.144000
H     -0.175900   -3.504800    1.049000
