24
gdb_9414
C      0.004000    1.535100   -0.145000
C      0.013500    0.013500    0.034100
C      0.688900   -0.487700    1.325700
C     -0.062700   -0.022900    2.581700
C      0.838600   -2.020800    1.279900
C      1.682600   -2.625000    2.407300
C      1.904700   -4.121900    2.233700
O      2.676000   -4.583300    3.333600
H      1.020200    1.943800   -0.104100
H     -0.424100    1.810600   -1.114100
H     -0.586600    2.038600    0.626300
H     -1.017300   -0.366400    0.000000
H      0.528800   -0.437800   -0.823700
H      1.701800   -0.057500    1.357500
H     -1.081100   -0.431100    2.597300
H      0.439000   -0.347000    3.497700
H     -0.141400    1.067000    2.625600
H     -0.162200   -2.477200    1.285000
H      1.289600   -2.295400    0.316300
H      2.662500   -2.132800    2.450400
H      1.209900   -2.465600    3.382400
H      0.931800   -4.638900    2.185300
H      2.420200   -4.313200    1.277800
H      2.818700   -5.528000    3.225200
