10
gdb_21356
N      0.035500    1.327500    0.009100
C      1.299500    1.872800   -0.000100
C      2.130900    0.772100   -0.014100
O      3.387200    0.370500   -0.028300
N      3.231500   -1.194200   -0.035800
N      2.032900   -1.468700   -0.024900
C      1.258400   -0.330000   -0.011600
N     -0.033200   -0.011400    0.002600
H     -0.830100    1.843500    0.020400
H      1.460700    2.936500    0.004100
