17
gdb_19949
O      0.977600    0.615800   -0.976200
C      0.400700    1.500500   -0.408400
C     -1.002700    1.640800    0.205500
C     -0.425800    2.780600    1.095400
C      0.838500    2.869600    0.184100
N      2.117500    3.103800    0.810400
C      2.866700    1.967300    1.347100
C      3.322800    2.660000    0.109700
H     -1.731600    1.990800   -0.532400
H     -1.402100    0.750100    0.695300
H     -1.019600    3.690100    1.183600
H     -0.160600    2.425200    2.093500
H      0.690000    3.638000   -0.586900
H      3.362800    2.152200    2.295500
H      2.463000    0.965800    1.224700
H      3.199300    2.115400   -0.822000
H      4.159800    3.352300    0.141800
