15
gdb_20593
C      0.203100    1.514100    0.000600
C      0.096800    0.027700   -0.067700
C     -0.025300   -0.849700   -1.128800
C     -0.074500   -0.558100   -2.597300
O      0.963600    0.321600   -3.025400
N     -0.081800   -2.123400   -0.639300
N     -0.010800   -2.094400    0.658700
N      0.097700   -0.795900    1.009000
H      0.958300    1.832900    0.726800
H      0.489700    1.895000   -0.981200
H     -0.748300    1.977500    0.286700
H     -0.055600   -1.514100   -3.137200
H     -1.004800   -0.047400   -2.868700
H      1.802000   -0.102000   -2.812000
H      0.180800   -0.556700    1.984900
