18
gdb_18871
C     -0.147700    1.592600   -0.018400
C      0.064300    0.082600   -0.029300
C      0.744300   -0.579100   -1.232300
C      2.251800   -0.471800   -1.099600
O      2.811900    0.549700   -0.299500
C      2.377600    0.300200    1.046000
C      1.149600   -0.593300    0.890800
C      1.543200   -1.507100   -0.303400
H      0.778300    2.126900   -0.243100
H     -0.888500    1.876000   -0.774700
H     -0.524200    1.936400    0.952100
H     -0.889000   -0.425100    0.154600
H      0.274400   -0.813300   -2.182100
H      2.865100   -0.729800   -1.954700
H      3.173700   -0.203400    1.615800
H      2.163700    1.263200    1.520400
H      0.797500   -1.047400    1.816600
H      1.706600   -2.576100   -0.312900
