20
gdb_13407
C     -0.096500    1.547200    0.063400
C     -0.001100    0.022200   -0.025500
C      0.636500   -0.455600   -1.334100
C      0.733900   -1.965500   -1.424500
O     -0.558600   -2.556300   -1.408700
C     -0.527600   -3.699000   -2.257400
C      0.897500   -3.687000   -2.850700
O      1.326200   -2.352100   -2.643000
H      0.894000    2.012400    0.005400
H     -0.699700    1.954000   -0.755700
H     -0.557800    1.862300    1.004500
H      0.581700   -0.359000    0.823600
H     -0.998800   -0.421100    0.063800
H      0.055300   -0.108400   -2.196000
H      1.649300   -0.047500   -1.437100
H      1.324000   -2.375300   -0.580200
H     -0.729700   -4.612900   -1.685500
H     -1.300400   -3.590000   -3.027200
H      1.552600   -4.395700   -2.321700
H      0.933100   -3.903400   -3.920500
