10
gdb_21876
O      0.004200    1.283900    0.008100
C     -0.036700   -0.040500    0.000800
N     -1.189900   -0.626300    0.004000
C     -1.180600   -2.001600   -0.003700
O     -2.131900   -2.737400   -0.002400
N      0.135700   -2.560800   -0.014200
N      1.276400   -1.900400   -0.016900
N      1.231400   -0.625800   -0.009600
H      0.937400    1.544100    0.004300
H      0.224400   -3.569300   -0.020300
