18
gdb_16947
C     -0.015400    1.487300    0.051600
C     -0.065900   -0.000400   -0.026000
C     -0.079200   -0.823000   -1.078300
C      0.011100   -2.230800   -0.504800
C      1.479500   -2.433000   -0.002700
C      1.493900   -1.475300    1.224700
C      0.026400   -0.933300    1.184000
O     -0.688800   -2.090600    0.740200
H      0.897000    1.828400    0.558400
H     -0.037900    1.943900   -0.941700
H     -0.858500    1.885600    0.630200
H     -0.042200   -0.567600   -2.129400
H     -0.407700   -3.046800   -1.092700
H      1.634900   -3.470800    0.301700
H      2.221600   -2.181300   -0.763400
H      1.667300   -2.022300    2.154200
H      2.238900   -0.679300    1.151300
H     -0.374000   -0.568500    2.130300
