18
gdb_19841
C      0.071100    1.592800   -0.091500
C      1.310000    0.738400   -0.031400
C      2.109600    0.727900    1.258100
O      1.265800    0.845400    2.402100
C      0.383800   -0.231700    2.546900
C     -1.083700    0.087600    2.504500
C     -0.423000   -0.600800    1.328000
C     -0.058300    0.091200    0.039300
H     -0.146200    2.209500    0.772800
H     -0.206100    2.034000   -1.042400
H      1.898600    0.610300   -0.934900
H      2.714900   -0.191000    1.321300
H      2.790800    1.583500    1.309700
H      0.744200   -1.012100    3.216200
H     -1.753700   -0.498000    3.124300
H     -1.352000    1.132800    2.403100
H     -0.653400   -1.654800    1.207200
H     -0.401300   -0.424800   -0.851300
