18
gdb_8545
C      0.071600    1.528600    0.086500
C     -0.062100    0.037000   -0.043500
C      0.471900   -0.707000   -1.297200
C     -0.646000   -1.770900   -1.131400
C     -0.367700   -2.746500    0.044000
C     -0.724300   -1.617200    1.038100
O      0.349100   -0.659400    1.166000
C     -1.375000   -0.806400   -0.116200
H      1.124900    1.803600    0.215200
H     -0.305900    2.033500   -0.808300
H     -0.482000    1.893100    0.956900
H      0.309200   -0.107700   -2.199500
H      1.513500   -1.039300   -1.264600
H     -1.103500   -2.173600   -2.034500
H     -1.124400   -3.537800    0.078700
H      0.628100   -3.190400    0.130700
H     -1.169500   -1.863500    2.004300
H     -2.393500   -0.430200   -0.171000
