17
gdb_3560
C     -0.018200    1.527500    0.018100
C      1.308200    0.812100   -0.064000
C      0.010500    0.020300   -0.055300
C      0.124900   -0.693500   -1.418000
C      1.619500   -1.171600   -1.354500
C      1.877400    0.375800   -1.429700
C      0.653300    0.400800   -2.385000
H     -0.262000    1.937600    0.993900
H     -0.392700    2.132300   -0.799000
H      1.977200    0.831300    0.789000
H     -0.304300   -0.560700    0.804100
H     -0.686300   -1.364000   -1.703200
H      1.944500   -1.694200   -0.450300
H      1.943400   -1.712100   -2.248800
H      2.841800    0.788700   -1.726600
H      0.902900   -0.019000   -3.361600
H      0.089300    1.323500   -2.526600
