22
gdb_9673
C      0.027000    1.529100   -0.363100
C     -0.027400    0.110000    0.219500
C     -1.407700   -0.534500    0.148900
C     -2.479000    0.178600    0.958600
C     -1.839800   -1.177500   -1.150800
C     -1.550900   -2.042300    0.054300
C     -0.397900   -3.011600    0.058700
O     -0.851200   -4.219700   -0.543900
H      1.049400    1.918900   -0.338200
H     -0.311500    1.538000   -1.404600
H     -0.603100    2.226000    0.197400
H      0.698700   -0.510000   -0.315700
H      0.305900    0.135400    1.266300
H     -2.640800    1.202500    0.605100
H     -3.437300   -0.345100    0.891500
H     -2.202200    0.232600    2.018600
H     -2.868300   -1.063800   -1.476700
H     -1.119900   -1.210800   -1.963600
H     -2.422300   -2.450700    0.560800
H      0.460500   -2.600800   -0.492800
H     -0.063700   -3.193700    1.093600
H     -0.140000   -4.864800   -0.484900
