13
gdb_5478
N      0.042200    1.407800    0.149200
C      0.017800    0.033300    0.041600
C     -1.085500   -0.809700    0.013500
O     -0.651600   -2.119300   -0.026500
C      0.686100   -2.089700   -0.026300
C      1.167400   -0.815900    0.014700
C     -2.494500   -0.532400    0.014100
O     -3.394500   -1.347800   -0.015500
H      0.871800    1.854000   -0.211400
H     -0.800500    1.893200   -0.117800
H      1.179400   -3.048700   -0.057900
H      2.203100   -0.514000    0.030400
H     -2.713000    0.562200    0.045100
