18
gdb_16838
C      0.068100    1.563300   -0.017800
C      0.024200    0.034500    0.020700
C      0.653300   -0.652200   -1.216300
C      1.210800   -2.019100   -0.736400
O      2.339200   -2.473200   -1.459700
C      1.475100   -1.798200    0.743300
O      2.220900   -0.587400    0.978600
C      0.796900   -0.577800    1.180400
H      1.104700    1.913400   -0.056100
H     -0.454500    1.951300   -0.897900
H     -0.403600    1.998500    0.869700
H     -1.020100   -0.291300    0.127600
H     -0.052100   -0.763000   -2.042700
H      1.491500   -0.051600   -1.583400
H      0.458200   -2.808700   -0.848700
H      3.050200   -1.845000   -1.285100
H      1.714200   -2.630200    1.400500
H      0.480300   -0.416700    2.208600
