18
gdb_12846
C     -0.207700    1.499500    0.047200
C      0.027200    0.003300    0.006900
O     -1.196900   -0.727600    0.330300
C     -0.497300   -1.540900    1.294000
C      0.805900   -0.728300    1.141500
C      2.010900   -1.436000    0.498600
C      1.739400   -1.288900   -0.983500
C      0.686900   -0.515300   -1.248000
H      0.727700    2.044200   -0.118100
H     -0.916300    1.792900   -0.734900
H     -0.626500    1.797700    1.012600
H     -0.981600   -1.506800    2.276800
H     -0.418400   -2.588500    0.972300
H      1.060000   -0.124000    2.013200
H      2.964000   -0.967900    0.778500
H      2.088400   -2.488000    0.803100
H      2.358400   -1.772200   -1.732700
H      0.313500   -0.272200   -2.237000
