20
gdb_15941
C     -0.124100    1.535600    0.031700
C     -0.091700    0.004000   -0.054700
C      0.743100   -0.499500   -1.213200
C      0.199200   -0.319200   -2.666000
C      0.434500   -1.836100   -2.950600
C      1.041800   -1.996200   -1.541000
O      2.464300   -1.758900   -1.515000
C      2.279100   -0.377700   -1.130400
H      0.882100    1.946300    0.169900
H     -0.538700    1.975600   -0.881600
H     -0.738100    1.871800    0.872400
H      0.303300   -0.409300    0.882800
H     -1.116100   -0.379000   -0.151900
H     -0.854200   -0.027800   -2.697800
H      0.763600    0.378200   -3.290900
H     -0.493400   -2.397800   -3.091000
H      1.124900   -2.084200   -3.759400
H      0.753000   -2.854600   -0.926400
H      2.762100    0.319100   -1.827700
H      2.664900   -0.191800   -0.117800
