13
gdb_21697
N      0.146400    1.343400   -0.107500
C      0.101200   -0.029000   -0.067700
N     -0.990000   -0.750400   -0.047700
O     -0.552200   -2.061700    0.056700
N      0.805500   -2.130700    0.076200
C      1.236400   -0.903600    0.014600
C      2.678200   -0.505900    0.007600
O      2.942300    0.448100   -1.021200
H      0.970000    1.699700   -0.573900
H     -0.713900    1.788100   -0.393200
H      2.934200    0.002700    0.942900
H      3.311600   -1.396700   -0.075600
H      2.838500    0.001900   -1.868900
