17
gdb_3197
C     -0.022000    1.568900    0.002500
C      1.490600    1.968900   -0.024000
C      2.181000    0.591100   -0.035800
C      1.240700   -0.255000   -0.905700
C      0.038100    0.021600    0.022400
C      0.652700   -0.403500    1.366300
O      2.031500    0.003700    1.266900
H     -0.548800    1.968800    0.873600
H     -0.546000    1.925400   -0.889300
H      1.745100    2.554600   -0.913000
H      1.795500    2.539600    0.855800
H      3.242900    0.595200   -0.284600
H      1.107800    0.135300   -1.918400
H      1.536400   -1.306200   -0.949000
H     -0.901200   -0.479700   -0.214900
H      0.180600    0.092100    2.224000
H      0.604900   -1.489300    1.525900
