18
gdb_808
C      1.087500    0.515000   -1.065600
C      0.038800    0.007100   -0.057700
C      0.682000   -0.600400    1.166000
C      0.816700   -2.099100    1.273200
C     -0.524100   -2.811100    1.521000
N      1.155600    0.074100    2.144200
O      0.985800    1.461600    1.960800
H      1.744000   -0.295100   -1.399400
H      0.598800    0.936300   -1.949300
H      1.706500    1.290900   -0.609800
H     -0.596100    0.842500    0.250900
H     -0.602500   -0.738500   -0.538400
H      1.263600   -2.481700    0.345400
H      1.511200   -2.324500    2.087000
H     -0.965400   -2.484500    2.467500
H     -1.247500   -2.607200    0.725200
H     -0.380300   -3.894700    1.568200
H      1.368600    1.816400    2.769500
