17
gdb_17523
C     -0.014800    1.377500   -0.034400
O      0.015500   -0.038600   -0.030000
C      0.644100   -0.577100    1.070300
C      2.178500   -0.416600    1.323900
C      2.062800   -1.766500    2.025900
C      0.815000   -2.123200    1.314800
N      0.752700   -1.843300    2.776300
C      0.071000   -0.533200    2.504200
H      0.997800    1.804600   -0.051000
H     -0.543700    1.682400   -0.939400
H     -0.548200    1.774700    0.841000
H      2.740500   -0.509900    0.391100
H      2.525700    0.451200    1.894900
H      2.852300   -2.409800    2.391000
H      0.439500   -3.017200    0.836100
H      0.353500    0.290600    3.170000
H     -1.009500   -0.695400    2.534600
