18
gdb_14351
C      0.498000    1.340400   -0.224300
C     -0.070600   -0.045000    0.059000
O      0.114400   -0.929900   -1.036600
C      1.098700   -1.888700   -0.710400
C      2.576700   -1.516000   -1.032900
C      2.854600   -1.318800    0.488800
C      1.375100   -1.692600    0.803100
O      0.523600   -0.639700    1.204000
H      1.573400    1.293700   -0.414700
H      0.004600    1.770200   -1.100800
H      0.321500    1.994900    0.634100
H     -1.151000    0.026600    0.247100
H      0.761300   -2.866100   -1.063800
H      3.146100   -2.325700   -1.495500
H      2.670600   -0.625200   -1.656800
H      3.585300   -2.014000    0.909000
H      3.119300   -0.306700    0.800400
H      1.226200   -2.536300    1.481300
