16
gdb_18441
O      0.121500    1.386400   -0.239800
C      0.001800    0.013400   -0.000400
C      0.246300   -0.578300    1.438700
C     -1.108200   -1.283200    1.338100
C     -2.220200   -0.264100    1.180000
C     -2.196400    1.037900    1.791600
C     -2.180400    2.125000    2.310900
C     -1.382200   -0.654100   -0.025300
H     -0.476200    1.842600    0.365700
H      0.664400   -0.475200   -0.719500
H      1.099600   -1.258100    1.475800
H      0.336900    0.155600    2.244100
H     -1.332100   -2.287500    1.675100
H     -3.209700   -0.714100    1.154000
H     -2.178500    3.079500    2.776800
H     -1.865600   -1.076900   -0.898600
