12
gdb_4955
O     -0.026100   -0.046300    0.004500
C     -0.010100    1.162600    0.010000
N     -1.164500    1.924100    0.029000
C     -1.215300    3.312000    0.036100
C     -0.074300    4.012500    0.024200
N      1.140200    3.339000    0.004800
C      1.296700    1.964800   -0.003700
O      2.381800    1.432000   -0.020500
H     -2.020500    1.387000    0.037900
H     -2.192700    3.769100    0.051400
H     -0.039500    5.091000    0.028700
H      2.006500    3.859400   -0.004300
