9
gdb_1024
N      0.023400   -1.140600   -0.003600
C      0.011100    0.016200    0.002700
C     -0.032700    1.434600    0.010900
C     -1.133100    2.236300    0.030300
O     -0.707900    3.522000    0.031400
C      0.647700    3.436000    0.012400
N      1.111900    2.234100   -0.000400
H     -2.194500    2.060800    0.043900
H      1.192700    4.366400    0.009900
