14
gdb_7622
C     -1.158800    0.554900    0.093600
C      0.342500    0.473500   -0.042000
O      1.119300    1.028700    0.698200
C      0.887100   -0.340300   -1.214500
C      2.053000   -1.297500   -0.927200
C      1.051400   -2.375500   -1.342900
O      1.013700   -3.553500   -1.470500
O      0.032200   -1.473600   -1.586600
H     -1.606000    0.915000   -0.839900
H     -1.570400   -0.445100    0.263900
H     -1.419500    1.218800    0.918000
H      1.024800    0.321700   -2.076500
H      2.923200   -1.219000   -1.579600
H      2.375300   -1.338800    0.113900
