16
gdb_7077
O     -0.254300    1.448500    0.091000
C      0.002500    0.057300    0.004500
C      0.793700   -0.287100   -1.271900
C      0.065200    0.130500   -2.534000
O     -0.042200   -0.564100   -3.512200
C      0.720400   -0.483800    1.260200
C     -0.001300   -0.217900    2.497000
C     -0.604700   -0.003200    3.513400
H      0.571000    1.898200    0.306300
H     -0.989700   -0.405000   -0.048300
H      1.751400    0.255900   -1.242700
H      1.018800   -1.355700   -1.338200
H     -0.374600    1.149300   -2.493400
H      0.875000   -1.563600    1.142300
H      1.725600   -0.039100    1.309800
H     -1.138000    0.188600    4.411300
