12
gdb_23717
O      0.086600    1.338000    0.097600
C      0.067100   -0.011800    0.058000
N      0.094500   -0.591500   -1.135300
C      0.075600   -1.928100   -1.188800
C      0.028800   -2.708400   -0.047300
F      0.011500   -4.041700   -0.150200
C      0.000000   -2.102500    1.204800
C      0.019400   -0.719800    1.265300
H      0.119200    1.631500   -0.823200
H      0.098300   -2.394200   -2.169600
H     -0.036700   -2.711600    2.100700
H     -0.001100   -0.185700    2.206800
