13
gdb_1439
C     -0.076500    1.362800    0.124700
O      0.026100   -0.058700   -0.036400
C      0.663200   -0.465200   -1.152900
O      1.125400    0.274700   -1.977000
C      0.691100   -1.992900   -1.180800
C      1.356100   -2.552300   -2.344900
C      1.900100   -3.040200   -3.296900
H      0.916300    1.817200    0.169000
H     -0.628700    1.805100   -0.708100
H     -0.610100    1.516700    1.062400
H      1.170300   -2.331600   -0.253900
H     -0.346300   -2.343600   -1.114500
H      2.384500   -3.457800   -4.144500
