17
gdb_11515
N      0.155600    1.558900    0.011000
C      0.082200    0.098300   -0.022900
C      0.721500   -0.593900   -1.251500
N      0.074300   -0.120000   -2.465900
C      0.787200    0.883300   -3.258200
C      0.690700   -0.524200   -3.725800
C      0.677600   -0.452100    1.204900
N      1.175200   -0.905800    2.143500
H      1.124200    1.864400   -0.024900
H     -0.307500    1.922900   -0.815600
H     -0.981600   -0.168500   -0.022100
H      1.812200   -0.419000   -1.247600
H      0.561700   -1.675000   -1.170200
H      0.171600    1.657000   -3.707900
H      1.757400    1.222400   -2.898800
H      1.596200   -1.126700   -3.679000
H      0.001600   -0.798400   -4.519000
