18
gdb_8455
C      0.007200    1.480000    0.125700
C     -0.031700   -0.013800   -0.021400
C      0.680700   -0.800300   -1.153900
C      0.694100   -1.841600   -0.025500
O      0.817400   -0.749400    0.944500
C     -0.785900   -2.223700    0.194600
O     -0.977900   -2.846900    1.444000
C     -1.370900   -0.773000    0.111200
H      1.031100    1.854600    0.041900
H     -0.601900    1.953000   -0.651500
H     -0.392700    1.780100    1.099800
H      0.131700   -1.015400   -2.074600
H      1.677000   -0.407900   -1.363800
H      1.445900   -2.622700    0.084200
H     -1.183700   -2.904300   -0.562000
H     -0.511600   -2.288400    2.080700
H     -1.907500   -0.519300    1.028700
H     -2.035600   -0.612200   -0.742000
