16
gdb_3292
C     -0.060000    1.556000    0.094600
N      0.053900    0.115400    0.093800
C     -1.176600   -0.674300    0.353700
C     -0.402300   -1.541300    1.364100
O      0.392200   -2.588600    0.776500
C      1.579100   -1.751700    0.758500
C      0.764100   -0.533800    1.220100
H      0.932500    2.008500   -0.004600
H     -0.658400    1.877400   -0.764600
H     -0.534300    1.966200    1.007600
H     -1.968300   -0.088400    0.848400
H     -1.592900   -1.183900   -0.521400
H     -0.899200   -1.852900    2.284900
H      2.324200   -2.112700    1.480000
H      2.022000   -1.672100   -0.239300
H      1.151300    0.123500    2.002000
