15
gdb_11262
C     -0.270000    1.531900   -0.055200
C      0.073400    0.054600    0.044500
C      0.919100   -0.504600   -1.133900
N      2.193700   -0.923000   -0.538500
C      2.087500   -0.697100    0.710800
O      0.932600   -0.164900    1.197900
C      3.096700   -0.957700    1.682700
C      3.940000   -1.174200    2.510200
H      0.634200    2.126900   -0.218000
H     -0.949800    1.700900   -0.897000
H     -0.758000    1.883200    0.857800
H     -0.832000   -0.536300    0.215200
H      0.444100   -1.360000   -1.626300
H      1.100800    0.253300   -1.905200
H      4.690900   -1.368300    3.236000
