17
gdb_2279
O     -0.632300    0.898000    0.755300
C      0.004500    1.070400   -0.251900
C      1.356900    1.741100   -0.325300
C      1.337000    2.961700   -1.247700
C      0.607400    4.254800   -0.781400
C      1.755500    5.082500   -1.419100
C      2.635200    3.802800   -1.403800
H     -0.392500    0.738900   -1.241700
H      1.671100    2.011800    0.687700
H      2.071500    1.004400   -0.722400
H      0.969300    2.666200   -2.238000
H     -0.410800    4.424700   -1.139200
H      0.608500    4.336100    0.310300
H      1.513200    5.395100   -2.438800
H      2.119300    5.952300   -0.868000
H      3.251700    3.749400   -0.500500
H      3.270200    3.600800   -2.269900
