16
gdb_1988
N      0.286900    0.159900    0.999300
C     -0.001000    0.066400   -0.330900
O      0.436100    0.847700   -1.152900
C     -0.938800   -1.080300   -0.724200
C     -0.973300   -2.280500    0.197600
C     -1.909200   -2.318600    1.390600
C     -2.164400   -3.201200    0.194500
H      0.859300    0.927100    1.310000
H     -0.106900   -0.472700    1.673000
H     -1.945800   -0.650000   -0.808600
H     -0.648200   -1.370100   -1.738500
H     -0.009900   -2.762800    0.341900
H     -1.567100   -2.785700    2.308000
H     -2.573500   -1.473500    1.542800
H     -2.998100   -2.946200   -0.451400
H     -1.991800   -4.266500    0.297400
