17
gdb_7637
C     -0.013600    1.592600    0.044700
C      0.031100    0.063500   -0.011000
O      0.848400   -0.470500    1.017900
C     -1.370100   -0.553900    0.027600
C     -1.465200   -2.100000    0.180700
C     -2.268500   -1.813400    1.468000
O     -2.893600   -2.451700    2.267300
N     -2.030400   -0.450900    1.348400
H      1.001300    1.997100    0.032200
H     -0.565500    2.007800   -0.805500
H     -0.501000    1.933000    0.966200
H      0.505000   -0.249300   -0.949900
H      0.362300   -0.356800    1.844600
H     -1.983700   -0.160600   -0.791200
H     -2.034100   -2.623600   -0.588700
H     -0.507400   -2.592300    0.351700
H     -2.565700    0.308700    1.747200
