13
gdb_21484
N     -0.065000    1.311200   -0.052200
C     -0.015300   -0.023600   -0.000800
N      1.144300   -0.685900    0.038700
H      1.071300   -1.693800    0.015800
H      2.036000   -0.241900   -0.092900
C     -1.223500   -0.760100    0.009100
N     -1.273600   -2.116500   -0.006800
C     -2.592500   -2.296300    0.013700
N     -3.319500   -1.143400    0.039500
N     -2.430700   -0.154400    0.037900
H      0.741200    1.893200    0.091200
H     -0.991800    1.714100   -0.013600
H     -3.065900   -3.268500    0.010600
