20
gdb_7502
O     -0.329000    1.448600    0.329300
C     -0.058000    0.068700    0.136900
C     -1.395000   -0.646700   -0.022200
C     -1.288600   -2.168000   -0.169800
O     -0.545200   -2.534800   -1.321300
C     -0.934400   -2.920500    1.156300
C     -2.443400   -3.235100    1.340600
C     -2.669400   -2.870000   -0.151200
H      0.509700    1.912700    0.406200
H      0.559400   -0.084100   -0.764100
H      0.498200   -0.349000    0.992100
H     -2.014800   -0.404800    0.849200
H     -1.905700   -0.241900   -0.903400
H      0.355700   -2.209700   -1.223700
H     -0.354600   -3.819000    0.930000
H     -0.431500   -2.359200    1.948500
H     -2.703600   -4.249900    1.647300
H     -2.934100   -2.534700    2.021200
H     -3.540500   -2.261500   -0.407100
H     -2.642800   -3.748800   -0.799600
