13
gdb_799
C      0.088700    1.515200   -0.005600
C      0.091200    0.018300    0.009900
N      0.126100   -0.715000    1.058100
O      0.162900    0.036800    2.226700
C      0.049200   -0.714100   -1.313900
N      0.053900   -2.067500   -1.227100
O      0.014300   -0.100900   -2.366300
H      0.983100    1.901100    0.494000
H      0.055200    1.867100   -1.035600
H     -0.772700    1.898800    0.550400
H      0.186200   -0.638200    2.914600
H      0.083400   -2.517600   -0.328500
H      0.026900   -2.605300   -2.075800
