18
gdb_10538
C      0.061800    1.574500    0.029900
C      0.204100    0.051000    0.063700
C      0.519800   -0.540700   -1.316800
C      0.676400   -2.054900   -1.310300
C      1.633200   -2.710500   -2.253000
N      1.930600   -2.668600   -0.818900
C     -0.522000   -2.784500   -0.938200
N     -1.501600   -3.334100   -0.664700
H      0.983900    2.054200   -0.317200
H     -0.745200    1.882100   -0.644100
H     -0.165500    1.970900    1.023600
H      0.994400   -0.233000    0.770000
H     -0.720100   -0.400400    0.443100
H     -0.272100   -0.267600   -2.025500
H      1.450000   -0.108000   -1.707700
H      1.411800   -3.698200   -2.644500
H      2.173500   -2.054500   -2.930400
H      2.597800   -1.927600   -0.614000
