16
gdb_4147
O     -0.170400    1.295200    0.043100
N      0.013300   -0.106800    0.019100
C     -1.106100   -0.699400    0.003500
C     -2.547100   -0.186600    0.006100
N     -3.304400   -1.476400   -0.020200
C     -2.503600   -2.274400    0.995400
C     -1.326500   -2.185100   -0.023900
C     -2.494400   -2.237900   -1.056300
H      0.737200    1.616900    0.052900
H     -2.789900    0.391300    0.901600
H     -2.781900    0.422800   -0.870600
H     -2.393000   -1.803900    1.975800
H     -2.919500   -3.279000    1.096400
H     -0.455100   -2.837600   -0.031600
H     -2.909300   -3.238200   -1.196700
H     -2.375100   -1.732900   -2.018400
