14
gdb_5510
C     -0.038600    1.434900    0.070700
N     -0.020000   -0.013900    0.028300
C     -0.057000   -0.805100   -1.075500
N     -0.026100   -2.089300   -0.781200
C      0.034100   -2.140400    0.581200
C      0.039900   -0.867700    1.123500
C      0.091300   -0.404300    2.450000
C      0.135100    0.001800    3.584300
H      0.865600    1.818900    0.551000
H     -0.088300    1.815100   -0.950900
H     -0.908100    1.793900    0.628000
H     -0.106300   -0.385200   -2.069800
H      0.070800   -3.075000    1.119400
H      0.174100    0.346900    4.587600
