11
gdb_23805
F     -0.005000    0.030900    0.003600
C     -0.046400    1.349100    0.011300
C     -1.211900    2.035500    0.030100
C     -1.161100    3.461700    0.037000
N     -0.050400    4.141300    0.025900
N      1.080200    3.417900    0.007400
C      1.247700    2.030500   -0.001600
O      2.344700    1.509000   -0.019600
H     -2.160400    1.510900    0.039600
H     -2.072300    4.047900    0.051900
H      1.935000    3.959900   -0.001300
