13
gdb_2817
O      0.006300   -0.034000   -0.377900
C      0.045700    1.098500    0.033900
C      1.278200    1.923400    0.071200
C      1.164100    3.412200   -0.185900
C      1.480600    2.943700    1.207000
C      0.522600    3.084300    2.266500
C     -0.259800    3.218500    3.169700
H     -0.864600    1.612200    0.413600
H      2.168100    1.412400   -0.278300
H      1.952200    3.880800   -0.763000
H      0.170400    3.811600   -0.356500
H      2.516100    3.040300    1.520000
H     -0.953500    3.330800    3.965800
