17
gdb_7571
N      0.032600    1.311700    0.225900
C      0.071700    0.001000   -0.114600
O      1.092800   -0.587600   -0.427400
C     -1.282200   -0.716000   -0.093300
O     -2.262500    0.197000    0.359500
C     -1.544800   -1.470600   -1.435900
C     -1.020100   -2.772100   -0.774000
C     -1.183800   -2.103100    0.616400
H      0.893400    1.832000    0.237600
H     -0.835900    1.741000    0.493300
H     -3.118100   -0.241300    0.340700
H     -2.621000   -1.508900   -1.637100
H     -1.029100   -1.102000   -2.324200
H     -1.590000   -3.685300   -0.956300
H      0.030300   -2.939500   -1.009500
H     -0.380600   -2.232100    1.343400
H     -2.140900   -2.348200    1.089100
