22
gdb_14984
C     -0.154800    1.575000   -0.037300
C      0.010700    0.052500   -0.004300
C      0.784000   -0.486200    1.218200
C      0.635100   -2.013300    1.336600
C      1.594000   -2.599500    2.378900
C      3.054100   -2.327000    1.991100
C      3.247400   -0.912800    1.509100
C      2.244300   -0.095300    1.188300
H      0.807600    2.093600   -0.090400
H     -0.740100    1.885900   -0.908400
H     -0.674900    1.934600    0.857700
H     -0.983900   -0.412100   -0.010400
H      0.512500   -0.287100   -0.919900
H      0.326000   -0.028400    2.111300
H     -0.403400   -2.264900    1.581400
H      0.844600   -2.467000    0.357700
H      1.388200   -2.140400    3.354600
H      1.425700   -3.675500    2.496100
H      3.718300   -2.523200    2.842600
H      3.374800   -3.028200    1.205700
H      4.272800   -0.557100    1.430400
H      2.473300    0.920200    0.873300
