14
gdb_2386
N     -0.061600    1.175300    0.000800
H     -0.688000    0.918400   -0.755300
H      1.121800    0.080700    0.772800
H      0.465000    1.991400   -0.295700
C     -0.798500    1.443200    1.219800
C     -1.337600    0.260400    1.958300
C     -0.162500    1.032500    2.540200
C      1.186700    0.371700    2.655200
O      1.786700    0.347800    3.698600
O      1.666700   -0.211500    1.545300
H     -1.389100    2.357300    1.252200
H     -2.296600    0.345300    2.455000
H     -1.119200   -0.720000    1.549000
H     -0.373300    1.661300    3.396000
