19
gdb_12065
C     -0.072600    1.611500    0.060000
C      0.010800    0.087700    0.035000
C     -1.365500   -0.531400   -0.198500
O     -1.824900   -0.117900   -1.477600
C      1.079400   -0.589000   -0.876600
N      1.646500   -1.392800    0.267100
C      2.173600   -0.393400    1.212100
C      0.717200   -0.623700    1.196500
H      0.911000    2.069700    0.195100
H     -0.498600    1.981900   -0.876400
H     -0.716600    1.952200    0.879500
H     -1.287200   -1.627900   -0.138900
H     -2.054500   -0.202400    0.597600
H     -2.677600   -0.530200   -1.641100
H      0.656200   -1.240500   -1.642400
H      1.814500    0.076600   -1.341600
H      2.736700   -0.836200    2.028300
H      2.595400    0.530800    0.822900
H      0.206200   -1.116900    2.020000
