19
gdb_11669
C     -0.078400    1.556600   -0.070900
C      0.111600    0.053800    0.016300
N      1.325100   -0.581000   -0.712200
C      2.149700   -0.138500    0.512700
C      0.856800   -0.669800    1.173800
C      0.501300   -0.748100    2.634900
O      1.488500   -1.543200    3.277200
C      1.002700   -1.816800    0.148200
H     -0.236700    1.845600   -1.115300
H     -0.970600    1.850300    0.492800
H      0.763200    2.136500    0.313600
H     -0.815100   -0.441700   -0.298800
H      3.060900   -0.724000    0.652500
H      2.369800    0.929000    0.547300
H      0.463300    0.268500    3.060300
H     -0.504800   -1.186500    2.744600
H      1.275600   -1.589300    4.213800
H      0.098400   -2.345700   -0.167900
H      1.848100   -2.498200    0.263200
