17
gdb_3389
O      0.120200    1.285100   -0.320600
C      0.069200   -0.033800    0.210200
C     -1.319300   -0.623400    0.121600
C     -1.912100   -1.232200   -1.128800
C     -0.879300   -2.057100   -1.912700
C     -0.637400   -2.935300   -0.642900
C     -1.664400   -2.087600    0.122700
H     -0.255000    1.246200   -1.206700
H      0.807600   -0.684200   -0.279800
H      0.371900    0.058800    1.259000
H     -2.051600   -0.029000    0.665300
H     -2.855600   -0.880900   -1.530100
H     -1.329600   -2.628700   -2.726800
H     -0.018400   -1.512900   -2.315600
H     -0.980200   -3.961600   -0.791100
H      0.378300   -2.970200   -0.237500
H     -2.389000   -2.485300    0.823800
