12
gdb_20642
C     -0.060900    1.684700    0.025600
C     -0.233200    0.178000    0.118100
C     -1.517400   -0.330000   -0.403600
C     -1.779500   -1.627900   -0.371000
O     -2.002900   -2.759200   -0.340200
N      1.339900   -3.569100    0.421600
N      2.370500   -3.487200    0.793000
O      0.623000   -0.545400    0.586800
H     -0.131400    2.014100   -1.016900
H     -0.854500    2.195200    0.582400
H      0.911300    1.960800    0.433900
H     -2.273600    0.323000   -0.819500
