18
gdb_7190
O     -0.113700    1.479400   -0.071800
C      0.018300    0.066200   -0.088600
C     -1.381300   -0.525600    0.029300
C     -1.386000   -2.055500    0.056000
O     -0.600600   -2.574500    1.129000
C     -2.816800   -2.624200    0.098000
C     -2.848000   -4.136100    0.007900
O     -3.615100   -4.757900   -0.682600
H      0.766800    1.863500   -0.114700
H      0.487300   -0.281800   -1.023800
H      0.642000   -0.294300    0.741400
H     -1.854100   -0.140000    0.943700
H     -1.990700   -0.169200   -0.809000
H     -0.884400   -2.429300   -0.846200
H     -0.950300   -2.211200    1.951100
H     -3.275300   -2.335200    1.056800
H     -3.440200   -2.212900   -0.701300
H     -2.092200   -4.648700    0.640400
