16
gdb_4162
O      0.057300    1.339900   -0.185000
C     -0.024800    0.054300    0.393400
C     -1.391100   -0.565000    0.089900
N     -1.642600   -0.602900   -1.392800
C     -1.857600   -2.086000   -1.367200
C     -1.502500   -2.074000    0.103100
N     -1.323000   -2.916000    1.028000
O     -1.514300   -4.226800    0.557600
H     -0.134100    1.203400   -1.122700
H      0.766100   -0.612200    0.016600
H      0.114400    0.167400    1.472800
H     -2.172100   -0.045300    0.658300
H     -2.480700   -0.098300   -1.657000
H     -2.883600   -2.416200   -1.570700
H     -1.179700   -2.643100   -2.022500
H     -1.348000   -4.753900    1.346700
