13
gdb_16721
N      0.051700   -1.127600    0.113800
C     -0.010100    0.028400    0.067200
C     -0.043800    1.446300   -0.006900
C     -1.153900    2.203500   -0.036800
C     -0.788400    3.647500   -0.016000
O     -0.060300    4.018200    1.176500
C      0.686800    3.709800    0.002600
C      1.228300    2.287500   -0.033600
H     -2.168400    1.827700   -0.041800
H     -1.433400    4.416300   -0.427400
H      1.252800    4.531100   -0.427100
H      1.876700    2.072600    0.822200
H      1.810100    2.098100   -0.942800
