20
gdb_13165
C     -0.106700    1.515700    0.012100
C      0.034800   -0.017500   -0.065200
C      0.759700   -0.421000   -1.269900
C      1.378700   -0.746600   -2.248300
C      0.710200   -0.587600    1.191000
C     -0.038400   -0.487700    2.551100
C      0.486600   -1.907800    2.895700
C      0.772600   -2.127200    1.385300
H      0.877600    1.990700    0.067100
H     -0.622000    1.906600   -0.869100
H     -0.677300    1.799900    0.901400
H     -0.975600   -0.449700   -0.119100
H      1.914800   -1.038700   -3.117000
H      1.714300   -0.157400    1.279300
H      0.222700    0.334200    3.222100
H     -1.124500   -0.485600    2.406000
H      1.409200   -1.866300    3.481600
H     -0.203700   -2.596800    3.387400
H     -0.064700   -2.623400    0.883200
H      1.695400   -2.637800    1.103000
