8
gdb_321
O      0.003100   -0.076600    0.002800
C     -0.013400    1.137400    0.006700
C      1.194800    1.936100    0.000400
C      2.203000    2.593200   -0.004800
C     -1.242900    1.902900    0.017700
C     -2.268600    2.532400    0.026900
H      3.097400    3.168000   -0.009400
H     -3.178100    3.082700    0.034900
