13
gdb_5667
C     -0.084400    1.495300    0.011100
C      1.401100    1.870800   -0.001900
C      2.196800    0.780100   -0.014800
C      1.330200   -0.398100   -0.012200
C      0.041000    0.013400    0.002500
O     -0.770000   -1.072500    0.005400
C      0.123400   -2.116300   -0.009700
N      1.377500   -1.784100   -0.019100
H     -0.592800    1.890800    0.899400
H     -0.610300    1.899600   -0.863000
H      1.728800    2.901500   -0.000000
H      3.278000    0.774800   -0.025300
H     -0.308400   -3.104400   -0.010600
