22
gdb_13460
C     -0.882100    0.157600    3.406500
O     -0.819000   -1.037800    2.669800
C     -1.647100   -1.015600    1.520300
C     -1.456600   -2.307200    0.770700
C     -2.113000   -3.597800    1.218100
C     -2.986900   -3.680100    2.452000
C     -2.550200   -2.936800   -0.073400
C     -3.919400   -2.318900   -0.274100
H     -0.214700    0.050800    4.265500
H     -0.556900    1.026100    2.810700
H     -1.901400    0.362000    3.773800
H     -2.695700   -0.861400    1.817600
H     -1.374200   -0.160200    0.877400
H     -0.446600   -2.407900    0.382200
H     -1.492000   -4.480700    1.086200
H     -3.647800   -2.817300    2.562800
H     -3.620500   -4.573500    2.421600
H     -2.369500   -3.733200    3.354400
H     -2.182100   -3.422100   -0.974500
H     -4.321500   -1.864200    0.634000
H     -3.889900   -1.540700   -1.045200
H     -4.638100   -3.078400   -0.601700
