18
gdb_7806
C     -0.005900    1.466600    0.010400
N      0.009800    0.015000   -0.042800
C      0.772400   -0.500700   -1.167300
C      0.575100   -2.004200   -1.235200
O      0.932000   -2.661900   -0.011200
C      0.586500   -2.071200    1.168000
N      0.438900   -2.736600    2.233600
C      0.517600   -0.559100    1.197000
H      1.001400    1.906000    0.143100
H     -0.433000    1.865600   -0.914700
H     -0.630400    1.797700    0.845800
H      0.402000   -0.053100   -2.096000
H      1.852100   -0.260800   -1.087800
H     -0.475800   -2.226300   -1.458600
H      1.204700   -2.454400   -2.006400
H      0.575900   -3.731900    2.043500
H      1.541700   -0.191600    1.420700
H     -0.118800   -0.271600    2.035700
