21
gdb_8426
C      0.434100    1.321900    0.023600
C     -0.047700   -0.140800   -0.001100
C     -1.584600   -0.142800   -0.052100
C      0.549500   -0.930900   -1.208600
C      1.590900   -1.872600   -0.628600
C      2.675100   -1.307300    0.213800
N      1.495000   -1.916300    0.843700
C      0.456800   -0.951500    1.242100
H      1.524100    1.406200    0.032500
H      0.070400    1.865500   -0.855800
H      0.056200    1.840600    0.911900
H     -1.951800    0.375900   -0.944800
H     -1.978100   -1.164500   -0.070800
H     -2.009500    0.363600    0.822100
H     -0.230800   -1.518600   -1.704000
H      0.968400   -0.259600   -1.965700
H      1.749700   -2.825000   -1.128100
H      3.597100   -1.865000    0.355000
H      2.798100   -0.228600    0.253400
H      0.838000   -0.296100    2.033100
H     -0.369100   -1.529400    1.671300
