13
gdb_2564
O     -0.331400    0.469200   -0.770200
C      0.158600    1.012400    0.189300
C      1.356200    1.909900    0.111300
C      2.373500    1.549700   -0.987700
C      1.485900    2.716100   -1.194700
C      1.817500    2.479600    1.343000
C      2.174700    2.938500    2.396000
H     -0.253000    0.880800    1.211000
H      3.414200    1.716700   -0.739000
H      2.147400    0.638400   -1.529200
H      0.652200    2.603400   -1.878000
H      1.894300    3.713900   -1.093500
H      2.498100    3.349100    3.320300
