18
gdb_6710
C     -0.028900    1.421100   -0.132400
C     -0.288400   -0.080700   -0.058100
O      0.764600   -0.773000    0.614000
C     -1.636300   -0.407700    0.612200
N     -1.911200   -1.831400    0.781100
C     -2.283700   -2.514300   -0.453900
C     -2.603200   -3.922100   -0.194600
N     -2.837100   -5.036800   -0.003200
H      0.947600    1.619100   -0.582100
H     -0.794600    1.926300   -0.730000
H     -0.042900    1.868500    0.869800
H     -0.276400   -0.495900   -1.073600
H      0.915000   -0.331700    1.458300
H     -1.645300    0.054400    1.609700
H     -2.459400    0.048800    0.048700
H     -1.077800   -2.268300    1.165400
H     -3.180200   -2.032100   -0.863400
H     -1.522400   -2.491500   -1.253100
