13
gdb_12619
C     -0.010200    1.469000   -0.006100
N      0.010700    0.021100   -0.012700
C      0.056600   -0.797600   -1.136100
C      0.069700   -2.120100   -0.854500
C      0.029000   -2.252200    0.599700
O      0.024300   -3.220800    1.317900
C     -0.010000   -0.769200    1.133200
O     -0.047700   -0.377700    2.269600
H      0.892500    1.882500   -0.468100
H     -0.889700    1.856400   -0.531200
H     -0.051700    1.783400    1.038200
H      0.077700   -0.326600   -2.111200
H      0.103600   -2.929800   -1.565200
