20
gdb_14771
C     -0.025700    1.559900    0.113600
C     -0.013300    0.030300    0.048600
C     -1.420700   -0.573800    0.006300
C     -1.407100   -2.094000   -0.057800
O     -2.743300   -2.560700   -0.093700
C     -2.849800   -3.957000   -0.154100
C     -4.324000   -4.321100   -0.185200
O     -4.732000   -5.450400   -0.237700
H      0.990100    1.965700    0.142300
H     -0.532000    1.988300   -0.758300
H     -0.551900    1.913200    1.007100
H      0.550000   -0.293900   -0.836400
H      0.529200   -0.368400    0.916100
H     -1.989400   -0.265900    0.892300
H     -1.968400   -0.191800   -0.864000
H     -0.862100   -2.439100   -0.953200
H     -0.883700   -2.514000    0.818300
H     -2.363800   -4.374200   -1.053300
H     -2.382800   -4.449300    0.716800
H     -4.999400   -3.437600   -0.154800
