16
gdb_14246
C      0.406300    1.542100    0.080100
C      0.112600    0.051300    0.016100
C      0.942800   -0.847000   -0.961200
C      1.305200   -1.801000    0.225900
C      0.572200   -0.840500    1.194100
O      1.861000   -0.430600    1.757100
C      2.550400   -1.327100    0.963800
O      3.720200   -1.534200    0.959900
H      1.460500    1.725000    0.305200
H      0.171700    2.022700   -0.875200
H     -0.191800    2.029800    0.857100
H     -0.957100   -0.116800   -0.149700
H      0.345000   -1.329700   -1.735700
H      1.802800   -0.368400   -1.435100
H      1.137800   -2.870600    0.125400
H     -0.119700   -1.127200    1.984800
