14
gdb_1593
C     -0.250200    1.616900    1.204500
C     -0.191200    0.426100    0.224900
C      0.755400   -0.597300    0.656100
C      1.529000   -1.442800    1.023500
C     -1.628800   -0.096400   -0.041200
N     -1.791100   -1.441000    0.002400
O     -2.524800    0.683400   -0.297100
H      0.723700    2.107200    1.268600
H     -0.998000    2.327100    0.849000
H     -0.532900    1.278800    2.205100
H      0.138600    0.809800   -0.750400
H      2.225700   -2.177400    1.344600
H     -1.035200   -2.049800    0.266500
H     -2.710300   -1.817000   -0.160300
