14
gdb_15034
O     -0.871000    1.417900   -0.798900
C     -0.192000    1.366700    0.185500
C      1.333400    1.589800    0.214800
C      1.817800    2.229800   -1.019500
N      2.249500    2.779100   -1.939700
N      1.668900    2.264400    1.463600
C      2.984000    2.881200    1.615400
C      1.763800    3.725500    1.484900
H     -0.591200    1.137700    1.194700
H      1.775900    0.582700    0.264200
H      3.451600    2.728500    2.583100
H      3.660700    2.866200    0.764300
H      1.638900    4.264000    0.548700
H      1.322500    4.198900    2.356100
