14
gdb_4753
C      0.006200    1.465400    0.005100
N      0.001500    0.015800    0.018600
C     -0.063800   -0.813400   -1.066700
N     -0.049000   -2.079800   -0.735200
C      0.030500   -2.089000    0.648100
C      0.062300   -0.794300    1.123600
C      0.070200   -3.281400    1.410200
C      0.104800   -4.287400    2.070600
H      0.924800    1.856500    0.452600
H     -0.051500    1.808900   -1.029300
H     -0.852600    1.863300    0.553900
H     -0.120300   -0.422500   -2.072500
H      0.121000   -0.398200    2.123500
H      0.134700   -5.179400    2.645200
