17
gdb_16580
C     -0.054800    1.548600    0.075400
C     -0.018900    0.023900   -0.020600
C      0.756500   -0.558900   -1.222600
C      1.835000   -1.176300   -0.323300
N      0.937400   -1.977600   -1.147700
C     -0.044500   -2.898700   -0.582100
C      1.110900   -0.578000    0.866000
O      1.401300   -0.421700    2.018200
H      0.934200    1.983000   -0.105000
H     -0.748900    1.969900   -0.658500
H     -0.378300    1.857500    1.073000
H     -1.021300   -0.389700    0.125500
H      0.916700   -0.054500   -2.169900
H      2.906400   -1.288400   -0.452000
H     -0.573900   -2.539900    0.309600
H     -0.784200   -3.128300   -1.355000
H      0.472300   -3.826100   -0.320400
