17
gdb_8518
C     -0.107100    1.478800   -0.024000
C     -0.001700   -0.012100   -0.074300
C      0.894700   -0.863700   -0.976000
C      0.087200   -2.074700   -0.427700
O     -0.130600   -3.221300   -1.172100
C      0.469300   -2.075000    1.064600
N     -0.253800   -0.768100    1.214800
C     -1.048100   -1.062200   -0.014800
H      0.832000    1.926000    0.321200
H     -0.334500    1.890500   -1.013100
H     -0.897100    1.779700    0.669400
H      0.665800   -0.681800   -2.029800
H      1.979600   -0.852500   -0.813900
H      0.718200   -3.554300   -1.483900
H     -0.066300   -2.835900    1.638100
H      1.530700   -2.064400    1.342500
H     -2.129000   -1.063500   -0.067000
