22
gdb_12067
C      0.104300    1.541000   -0.087500
C      0.007100    0.027100    0.138100
C     -1.411000   -0.551300    0.036300
C     -2.337300    0.015700    1.115700
C     -2.107400   -0.514600   -1.378600
C     -2.265100   -2.038600   -1.328700
C     -0.916000   -2.691100   -1.234900
C     -1.519800   -2.093200    0.005100
H      1.148500    1.869100   -0.074500
H     -0.319100    1.826300   -1.056900
H     -0.425800    2.106400    0.684700
H      0.652700   -0.478000   -0.589400
H      0.415800   -0.222400    1.127100
H     -2.481500    1.094700    1.001200
H     -3.323200   -0.458300    1.067400
H     -1.929400   -0.165100    2.117700
H     -3.052600    0.033100   -1.361500
H     -1.503200   -0.135500   -2.210500
H     -3.145200   -2.588600   -1.639000
H     -0.918800   -3.776400   -1.264200
H     -0.051900   -2.242200   -1.719200
H     -1.732400   -2.701700    0.877900
