19
gdb_17289
C     -0.029200    1.506600   -0.039800
C     -0.010300   -0.004000    0.007600
C     -1.368500   -0.775100   -0.023600
C     -0.935800   -1.572200    1.250800
C      0.418400   -0.815900    1.257100
N      1.631200   -1.404000    0.550600
C      1.185200   -2.145200   -0.644300
C      1.179300   -0.674700   -0.712300
H      0.958800    1.922600    0.187800
H     -0.319600    1.865900   -1.035000
H     -0.742500    1.918100    0.682400
H     -2.231100   -0.124800    0.144400
H     -1.557100   -1.366300   -0.923800
H     -1.540800   -1.338200    2.130300
H     -0.884500   -2.660300    1.161400
H      0.734000   -0.345800    2.189400
H      2.010000   -2.658600   -1.130700
H      0.262900   -2.716600   -0.632300
H      1.891100   -0.124500   -1.323200
