16
gdb_2846
C     -0.093000    1.363000    0.429400
C     -0.093000   -0.130800    0.083400
C     -1.474200   -0.684000   -0.196700
C     -1.770700   -2.147200   -0.016800
N     -2.332400   -1.164500    0.879000
C     -2.089200   -1.119900    2.238000
O     -1.989700   -2.085900    2.955900
H      0.927200    1.730800    0.571500
H     -0.552400    1.952600   -0.371200
H     -0.651300    1.561900    1.349700
H      0.522600   -0.297600   -0.809700
H      0.369300   -0.708800    0.892800
H     -2.019900   -0.161000   -0.982400
H     -2.471400   -2.645800   -0.680800
H     -0.982900   -2.780000    0.385200
H     -2.073200   -0.080500    2.618200
