14
gdb_6359
C      0.153200    1.320800    0.007500
O     -0.059700   -0.092100    0.094600
C     -1.358100   -0.471900   -0.025700
O     -2.282400    0.273500   -0.186900
N     -1.391100   -1.857600    0.050300
C     -2.548500   -2.652300    0.129500
N     -2.234600   -4.002600    0.086200
O     -3.666000   -2.227600    0.271300
H      1.228400    1.463500    0.116600
H     -0.187400    1.704700   -0.957400
H     -0.384000    1.842500    0.803200
H     -0.495100   -2.298800    0.187100
H     -1.447500   -4.297600   -0.471700
H     -3.051800   -4.587200   -0.004900
