18
gdb_9525
C     -0.362100    1.407200    0.094800
C     -0.053800   -0.086100   -0.035100
C      0.885400   -0.409500   -1.206800
O      2.109700    0.266500   -1.045400
C      0.935500   -1.945400   -1.533600
C     -0.096900   -1.741500   -2.688500
C      0.248000   -0.252000   -2.598800
O      0.310600    0.648500   -3.390400
H      0.563400    1.975700    0.214600
H     -0.879600    1.787700   -0.791900
H     -0.997200    1.599100    0.964400
H      0.437500   -0.451000    0.875700
H     -0.980700   -0.662500   -0.142600
H      2.225200    0.836600   -1.815700
H      1.921300   -2.226700   -1.907400
H      0.640500   -2.614600   -0.724000
H      0.094200   -2.214600   -3.653400
H     -1.126100   -1.954600   -2.385600
