12
gdb_4715
N      0.079400    1.307700    0.128400
C     -0.035600   -0.038600    0.044000
N     -1.147400   -0.736900    0.017100
C     -0.700500   -2.034500   -0.007900
C      0.665000   -2.076900   -0.000400
O      1.097000   -0.754300    0.033800
C      1.618800   -3.157400   -0.026800
O      2.826500   -3.042900   -0.025000
H      0.958800    1.715300   -0.144700
H     -0.751500    1.830700   -0.094800
H     -1.385900   -2.868700   -0.033400
H      1.120300   -4.151700   -0.050800
