14
gdb_5022
C     -0.029000    1.507000    0.006900
C     -0.006400    0.008400   -0.011400
C     -0.039900   -0.700000   -1.154700
O     -0.021400   -2.055700   -1.222500
C      0.034600   -2.744000   -0.062500
C      0.072700   -2.159500    1.145700
C      0.055200   -0.702600    1.280900
O      0.087900   -0.115500    2.354600
H      0.861500    1.893700    0.512600
H     -0.076100    1.926500   -1.001400
H     -0.887600    1.866300    0.583100
H     -0.085500   -0.267200   -2.146900
H      0.044300   -3.811900   -0.242100
H      0.117200   -2.765700    2.042100
