16
gdb_11979
C     -0.062400    1.631200   -0.052600
C      0.041100    0.115000   -0.016700
O     -1.228500   -0.480900    0.203300
C      0.739200   -0.634400   -1.163000
C      2.177800   -0.353100   -1.204800
N      1.703900   -1.342900   -0.191000
C      1.098200   -0.558500    0.868500
N      1.242300   -0.572100    2.115800
H      0.886600    2.105500   -0.317200
H     -0.823300    1.931500   -0.778800
H     -0.358100    2.002600    0.933900
H     -1.399600   -0.444600    1.151700
H      0.208900   -1.205000   -1.915000
H      2.765400   -0.823400   -1.986600
H      2.569500    0.599300   -0.858200
H      1.966200   -1.241400    2.391900
