16
gdb_9740
C     -0.026700    1.645500    0.252000
C      0.053300    0.128800    0.081300
C      0.765800   -0.339100   -1.200000
O      1.415900   -1.531000   -0.784000
C      1.834500   -1.263800    0.526200
O      0.833300   -0.458400    1.132200
C     -1.355800   -0.465400    0.184300
O     -2.108800   -0.588300   -0.745000
H      0.979400    2.073900    0.252200
H     -0.605900    2.089000   -0.563600
H     -0.508700    1.904700    1.199200
H      0.065400   -0.574300   -2.001900
H      1.492500    0.413100   -1.542500
H      1.931600   -2.208800    1.069200
H      2.795300   -0.719200    0.534200
H     -1.627700   -0.768300    1.219400
