16
gdb_4910
C      0.379400    0.994400    0.725800
C     -0.341200    0.406200   -0.489600
C      0.574500   -0.195100   -1.509700
C      1.937500   -0.287100   -1.501900
N      2.276500   -0.935700   -2.689600
C      1.109500   -1.188900   -3.327200
O      1.119700   -1.815500   -4.517100
N      0.063100   -0.770000   -2.671000
H      0.959000    0.228600    1.252200
H      1.069300    1.792000    0.430200
H     -0.336400    1.418100    1.435700
H     -1.057800   -0.358900   -0.163400
H     -0.948500    1.182100   -0.973900
H      2.689000    0.029400   -0.799800
H      3.195900   -1.173700   -3.018600
H      0.195600   -1.891700   -4.785500
