16
gdb_6657
N     -0.041100    1.328100    0.213100
C      0.054600    0.022000   -0.168400
O      1.092800   -0.468800   -0.564900
C     -1.251600   -0.770800   -0.076800
C     -0.993000   -2.272800    0.047500
C     -2.297800   -3.086000   -0.045600
C     -2.075900   -4.524000    0.093400
N     -1.889700   -5.658600    0.207900
H      0.769400    1.916200    0.108500
H     -0.906500    1.744000    0.508100
H     -1.861800   -0.404700    0.758100
H     -1.823700   -0.561700   -0.991700
H     -0.299000   -2.579300   -0.738300
H     -0.496200   -2.488500    0.998400
H     -3.004700   -2.772100    0.732100
H     -2.792000   -2.904300   -1.007700
