17
gdb_7074
C     -0.075800    1.644100   -0.043800
C     -0.014200    0.112800    0.011000
C      0.740100   -0.383400    1.260100
C      2.205400   -0.000900    1.236100
O      2.786900    0.559700    2.127100
C     -1.427800   -0.517200   -0.020100
C     -2.170300   -0.189300   -1.235600
N     -2.739200    0.076600   -2.205600
H      0.928200    2.078300   -0.055000
H     -0.601500    1.985600   -0.939500
H     -0.598600    2.044800    0.832300
H      0.521700   -0.247900   -0.876900
H      0.293100    0.002700    2.181900
H      0.700500   -1.482200    1.297600
H      2.735900   -0.294000    0.299000
H     -1.358200   -1.608300    0.055900
H     -2.008700   -0.176400    0.845700
