15
gdb_13047
N     -0.071300    1.263200    0.006300
C     -0.107300    0.021800   -0.207200
O     -1.041600   -0.733000    0.422200
C     -1.035400   -2.109900    0.128300
C     -2.210300   -2.920800    0.731100
C     -2.410600   -3.657100   -0.630200
C     -1.529600   -2.570400   -1.267600
O     -1.385100   -2.131200   -2.369300
H      0.680900    1.686100   -0.533500
H      0.549900   -0.553700   -0.869400
H     -0.062000   -2.565700    0.361600
H     -1.976800   -3.535200    1.599900
H     -3.044200   -2.256500    0.964200
H     -1.934900   -4.642100   -0.669500
H     -3.424300   -3.742400   -1.026100
