15
gdb_703
C     -0.208800    1.277000   -0.371400
C      1.108600    1.014000    0.330600
C      0.216200   -0.135100   -0.024400
N     -0.371100   -0.962600    1.000100
C     -1.226400   -0.372500    2.019600
C     -1.807800   -1.214600    0.937600
H     -0.994400    1.755600    0.202500
H     -0.194200    1.566200   -1.416700
H      2.035600    1.146600   -0.216000
H      1.167900    1.285600    1.379500
H      0.532400   -0.745100   -0.866000
H     -1.093800   -0.771500    3.021500
H     -1.441600    0.693300    1.987200
H     -2.379800   -0.697000    0.169600
H     -2.119100   -2.236600    1.134900
