18
gdb_19746
C     -0.020700    1.503300   -0.015100
C      1.512400    1.805600   -0.028800
C      2.053000    0.376400    0.017800
C      1.152000   -0.448000   -0.967800
C      1.440000   -1.890700   -0.564500
O      1.428700   -1.768200    0.873900
C      1.156500   -0.380200    1.042700
C      0.022500   -0.024000    0.035900
H     -0.527000    1.933000    0.854800
H     -0.531400    1.875300   -0.908400
H      1.828300    2.340500   -0.929400
H      1.832500    2.398300    0.833800
H      3.134300    0.228700    0.032200
H      1.095700   -0.210400   -2.031400
H      0.668100   -2.600000   -0.888100
H      2.417800   -2.255000   -0.903600
H      1.117000   -0.131900    2.103900
H     -0.921400   -0.571000    0.068200
