19
gdb_17568
C     -0.039900    1.521500    0.043500
C      0.031100    0.011800    0.050200
C      0.913100   -0.812500   -0.964200
C      0.716200   -1.937600    0.109900
C      0.783500   -0.791200    1.154100
C     -0.799700   -2.176300   -0.045000
N     -1.639100   -1.652300    1.062500
C     -1.290700   -0.783400   -0.090000
H      0.958900    1.967800    0.091700
H     -0.526600    1.893700   -0.866200
H     -0.613600    1.891300    0.900700
H      0.507600   -0.987300   -1.966400
H      1.942900   -0.449200   -1.028500
H      1.368500   -2.808800    0.165400
H      1.804700   -0.424400    1.280300
H      0.294700   -0.933500    2.115800
H     -1.177800   -2.968800   -0.680800
H     -2.589400   -1.993400    0.927100
H     -2.068700   -0.436800   -0.762100
