13
gdb_5140
N     -0.041200   -1.145200    0.521200
C     -0.009700   -0.015500    0.283300
C      0.027200    1.421000   -0.018800
C      1.413600    1.968500   -0.136200
C      2.129000    2.467400   -1.178700
C      3.405200    2.844300   -0.644800
C      3.361700    2.541700    0.677400
O      2.153900    2.008700    1.005100
H     -0.501200    1.593600   -0.961200
H     -0.531900    1.949100    0.763600
H      1.794400    2.554100   -2.200600
H      4.235400    3.279000   -1.178300
H      4.064000    2.636600    1.488700
