18
gdb_18269
C      0.039100    1.330700   -0.127100
O      0.019900   -0.082400   -0.028700
C     -1.257000   -0.623700    0.036500
O     -1.927600   -0.423700   -1.210400
C     -2.810300   -1.512300   -1.454800
C     -2.206200   -2.704400   -0.732700
C     -0.730400   -2.918300   -0.936700
C     -1.217500   -2.122600    0.246900
H      1.086000    1.638700   -0.081700
H     -0.401200    1.674400   -1.070000
H     -0.506500    1.796100    0.708100
H     -1.830900   -0.123000    0.840300
H     -3.817600   -1.300800   -1.062000
H     -2.886600   -1.636000   -2.540900
H     -2.847100   -3.537800   -0.471300
H     -0.337600   -3.908500   -0.736300
H     -0.232400   -2.380000   -1.735800
H     -1.098200   -2.499300    1.254700
