16
gdb_4978
N      0.040500    1.418900    0.076600
C      0.002200    0.011700    0.016900
C     -1.186100   -0.714300    0.051700
C     -1.175800   -2.108200    0.027400
C      0.034900   -2.787900   -0.045000
C      1.230500   -2.071200   -0.065300
C      1.231900   -0.678800   -0.026600
N      2.413600    0.086500   -0.082100
H      0.709900    1.808600   -0.579000
H     -0.866800    1.842400   -0.068200
H     -2.129700   -0.176300    0.089400
H     -2.112800   -2.653500    0.052200
H      0.056900   -3.871800   -0.072800
H      2.181100   -2.596800   -0.103000
H      3.247200   -0.468200    0.062500
H      2.396800    0.859200    0.575500
