15
gdb_16138
O     -0.219400    0.052500    0.238700
C     -0.029600    1.207400   -0.053300
C      1.288100    1.869600   -0.061000
N      1.338400    3.337600    0.248100
C      1.628800    2.903600   -1.110800
C      3.115000    2.745200   -1.423700
C      3.565800    1.658500   -0.467400
C      2.560800    1.162100    0.255200
H     -0.872300    1.882700   -0.341500
H      0.385200    3.702600    0.286800
H      0.928200    3.150200   -1.902700
H      3.269700    2.455400   -2.470700
H      3.654900    3.686400   -1.267200
H      4.603400    1.355200   -0.388400
H      2.616800    0.370900    0.990300
