15
gdb_10258
C     -0.066500    1.565100   -0.043600
C      0.003300    0.040800   -0.039200
O      0.788200   -0.454700   -1.110000
C      0.704400   -0.510000    1.236700
C      0.072900   -0.054600    2.474500
C     -0.450100    0.323900    3.486300
C      0.754600   -1.981400    1.197000
N      0.785800   -3.135400    1.183000
H      0.940000    1.992900    0.001000
H     -0.542000    1.910100   -0.967600
H     -0.650900    1.939900    0.800000
H     -1.011800   -0.380800   -0.066700
H      0.327000   -0.276900   -1.935100
H      1.741300   -0.148000    1.198800
H     -0.909300    0.652400    4.386300
