16
gdb_12751
C     -0.117500    1.506300    0.007900
C      0.136900    0.035900    0.029000
O     -0.715800   -0.798300    0.815100
C      0.700900   -0.895200    1.022600
C      1.239600   -1.842300   -0.053200
C      0.671200   -0.844100   -1.140300
C     -0.288700   -1.326500   -2.111300
C     -1.089600   -1.721800   -2.916400
H      0.750400    2.048200   -0.381500
H     -0.975400    1.736200   -0.633600
H     -0.337100    1.867900    1.015800
H      1.066800   -0.721100    2.028100
H      2.328600   -1.913400   -0.087700
H      0.797700   -2.839900   -0.048900
H      1.500500   -0.335600   -1.643600
H     -1.801200   -2.074200   -3.621200
