15
gdb_8167
N     -0.095500    1.493500    0.050800
C     -0.056500    0.064700    0.023000
C      0.339800   -0.803500    1.270500
C     -0.337800   -1.893600    0.413700
C     -1.349700   -0.824000   -0.048500
O      0.563000   -1.998400   -0.738500
C      0.777200   -0.677500   -1.033300
O      1.465400   -0.270700   -1.921100
H      0.850600    1.855600    0.148100
H     -0.425000    1.840200   -0.847500
H      1.399800   -0.932500    1.500400
H     -0.231100   -0.524400    2.157500
H     -0.595500   -2.890400    0.759200
H     -2.075800   -0.546800    0.717200
H     -1.827700   -0.971600   -1.019500
