17
gdb_14113
C      0.132200    1.255500   -0.743300
C     -0.042100    0.090400    0.211300
O      0.753400   -0.158000    1.093000
C     -1.254000   -0.758900    0.047500
C     -1.974200   -0.973100   -1.237300
N     -2.649900   -0.160700   -0.230800
C     -3.195400   -1.137800    0.784500
C     -1.789800   -1.696600    1.123800
H      0.890600    1.932300   -0.348400
H      0.463900    0.891200   -1.722600
H     -0.815500    1.782300   -0.889000
H     -1.653500   -0.404300   -2.103900
H     -2.347000   -1.971700   -1.461600
H     -3.666900   -0.592000    1.602900
H     -3.920400   -1.835600    0.353300
H     -1.611600   -2.763800    0.969600
H     -1.440800   -1.420000    2.118600
