18
gdb_19921
C     -0.013400    1.470700    0.104200
C      1.360500    0.833300    0.011800
C      1.953600    0.522600    1.355200
C      1.272900   -0.473700    1.925200
C      0.649900   -0.896700    3.237600
C     -0.710300   -0.871700    2.445200
C      0.107000   -0.957500    1.097900
C      0.080700   -0.019500   -0.094600
H     -0.323700    1.867600    1.065500
H     -0.358000    2.045600   -0.749500
H      1.980600    1.053100   -0.851200
H      2.694400    1.158100    1.827800
H      0.911800   -1.917000    3.537600
H      0.760400   -0.233100    4.098100
H     -1.411400   -1.685100    2.645600
H     -1.219500    0.088300    2.554700
H      0.185200   -2.005200    0.783600
H     -0.223800   -0.406300   -1.059900
