16
gdb_4568
C     -0.012600    1.527600    0.008800
C      0.005100    0.023300    0.006800
C      0.185200   -0.727700   -1.157500
N      0.205800   -2.056400   -1.177900
C      0.041900   -2.680800   -0.001100
C      0.064600   -4.184000   -0.017100
N     -0.139300   -2.071100    1.174700
C     -0.155100   -0.736600    1.161400
H      0.941200    1.940600   -0.337800
H     -0.793100    1.920600   -0.651700
H     -0.198300    1.916500    1.013700
H      0.318300   -0.228500   -2.117400
H      1.015300   -4.544800   -0.422400
H     -0.074300   -4.576000    0.990500
H     -0.724600   -4.568400   -0.671100
H     -0.303900   -0.247400    2.123700
