15
gdb_15764
C      0.023800    1.408800    0.042800
C      0.068300   -0.041000   -0.039700
C      0.094000   -1.244500   -0.109600
C      0.075900   -2.691500   -0.156100
O     -0.902200   -3.355100    0.116200
N      1.270800   -3.250800   -0.611300
C      2.541400   -3.142700    0.082000
C      1.821700   -4.455300   -0.036100
H      0.991300    1.855900   -0.208000
H     -0.724800    1.812700   -0.647400
H     -0.249100    1.733200    1.052800
H      3.406700   -2.935400   -0.541200
H      2.545100   -2.654700    1.053400
H      1.324600   -4.849100    0.846200
H      2.172900   -5.201200   -0.743100
