24
gdb_6802
C      0.035200    1.502300   -0.005500
C     -0.028600   -0.026900   -0.009900
C     -1.458200   -0.550400    0.017100
O     -1.429300   -1.960500    0.011600
C     -2.710700   -2.551500    0.036000
C     -2.567500   -4.072300   -0.017200
C     -3.938400   -4.740200    0.143600
C     -1.866900   -4.519000   -1.306000
H      1.071100    1.852900   -0.023700
H     -0.473600    1.926100   -0.878500
H     -0.440300    1.919500    0.889100
H      0.471000   -0.426300   -0.900000
H      0.506400   -0.432800    0.856400
H     -1.983800   -0.180700    0.915800
H     -2.020400   -0.174800   -0.856400
H     -3.250800   -2.251400    0.950900
H     -3.311900   -2.199100   -0.822400
H     -1.937000   -4.359800    0.834900
H     -4.610700   -4.463100   -0.677400
H     -3.844200   -5.830600    0.137000
H     -4.421900   -4.451600    1.083200
H     -2.478700   -4.278800   -2.184500
H     -0.904400   -4.014800   -1.417300
H     -1.695700   -5.600400   -1.306100
