18
gdb_14054
C     -0.058500    1.504400   -0.088900
O      1.351600    1.652000    0.172700
C      1.490000    0.243600    0.444100
C      0.041500   -0.038300   -0.005700
C     -0.941300   -0.793600    0.910700
C     -1.843400   -1.579900   -0.076600
O     -1.508000   -1.119300   -1.381700
C     -0.136100   -0.775300   -1.337200
H     -0.668900    1.965900    0.699800
H     -0.349200    1.926000   -1.058900
H      2.283400   -0.218100   -0.158600
H      1.691500    0.046700    1.506100
H     -0.409500   -1.472100    1.584700
H     -1.515500   -0.102600    1.533200
H     -1.656300   -2.661600    0.004700
H     -2.912400   -1.407500    0.072200
H      0.095900   -0.167800   -2.216000
H      0.502600   -1.677200   -1.358700
