19
gdb_4771
C      0.207100    1.529500    0.251700
C     -0.105800    0.057000   -0.072900
C      0.562400   -0.447100   -1.313400
C      0.053300   -0.761000   -2.554300
C      1.130800   -1.174500   -3.396500
C      1.041400   -1.611600   -4.827800
C      2.272100   -1.098000   -2.632700
N      1.920600   -0.657000   -1.377700
H      1.280000    1.685500    0.407200
H     -0.104300    2.181100   -0.570100
H     -0.311400    1.849400    1.161300
H      0.171500   -0.567800    0.787800
H     -1.186300   -0.065000   -0.198800
H     -0.989500   -0.702000   -2.832100
H      0.632100   -0.823100   -5.470800
H      2.026900   -1.877700   -5.221900
H      0.392100   -2.487400   -4.946700
H      3.298100   -1.324200   -2.877600
H      2.560000   -0.520100   -0.614700
