14
gdb_15929
N     -0.142800   -1.176100   -0.253100
C     -0.064400   -0.033800   -0.093600
C      0.037900    1.404000    0.075800
C     -0.369200    2.292900   -1.130000
O      0.852300    3.056200   -1.041100
C      1.346900    2.264600    0.045400
C      0.930000    2.817400    1.423000
N     -0.252400    1.909600    1.426100
H     -0.440600    1.758900   -2.084400
H     -1.268900    2.901000   -0.976900
H      2.356700    1.887100   -0.117200
H      1.611400    2.604900    2.253200
H      0.718700    3.890700    1.387500
H     -1.164200    2.337700    1.546300
