17
gdb_9753
C      0.016300    1.496300    0.039600
C     -0.065200   -0.030400   -0.039400
C     -1.530600   -0.503100   -0.111900
O     -2.253100   -0.141300    1.042400
C      0.799600   -0.628100   -1.184000
O      1.770300   -1.468500   -0.510000
C      1.475700   -1.370200    0.804200
N      0.520600   -0.632100    1.188300
H      1.046700    1.822100    0.207800
H     -0.342300    1.946500   -0.892800
H     -0.606800    1.860900    0.858400
H     -2.035800   -0.038300   -0.966900
H     -1.539600   -1.594800   -0.269800
H     -1.706100   -0.419000    1.789200
H      0.231100   -1.258100   -1.875800
H      1.343900    0.129200   -1.754000
H      2.116900   -1.960500    1.450100
