18
gdb_11673
C     -0.039800    1.488400   -0.188200
C     -0.064000   -0.025300    0.051300
C     -1.447300   -0.588900    0.169900
C     -2.609700   -0.261900    1.137800
C     -3.163900   -1.160100    0.018900
O     -2.400800   -0.359000   -0.976500
C     -1.919800   -2.080200    0.148800
O     -1.554900   -2.857200   -0.940500
H      0.986100    1.845700   -0.314500
H     -0.607000    1.744600   -1.087000
H     -0.483400    2.030200    0.653200
H      0.443900   -0.549800   -0.767600
H      0.482500   -0.279800    0.968300
H     -2.560800   -0.667000    2.152400
H     -2.960700    0.769200    1.105400
H     -4.196000   -1.404800   -0.232200
H     -1.803600   -2.668700    1.061900
H     -1.698900   -2.283000   -1.708100
