16
gdb_6002
C      0.744200    1.169400    0.211900
C     -0.325500    0.133400   -0.043000
O     -1.236900   -0.083800    0.714400
C     -0.188600   -0.689000   -1.366000
C     -1.551700   -1.241900   -1.797900
O      0.342200    0.215700   -2.336700
C      0.764400   -1.773800   -1.098300
C      1.556400   -2.655700   -0.894900
H      1.738400    0.737000    0.067200
H      0.647200    1.980600   -0.515500
H      0.636100    1.558200    1.224800
H     -2.219000   -0.408800   -2.031500
H     -1.437700   -1.870400   -2.685500
H     -1.993800   -1.832700   -0.994600
H      0.653900   -0.306300   -3.083700
H      2.251900   -3.437400   -0.710400
