19
gdb_17798
C     -0.056100    1.583200    0.038400
C      1.488000    1.488800    0.014700
N      1.375300    0.076200    0.443200
C     -0.035400    0.036700   -0.004000
C      2.296600   -0.883300   -0.102700
C      3.711700   -0.874500    0.516900
O      3.569600   -2.232800    0.979100
C      2.212100   -2.303800    0.498500
H     -0.438700    1.972400    0.983400
H     -0.538300    2.099700   -0.791500
H      1.889800    1.596700   -1.007000
H      2.062500    2.132200    0.688600
H     -0.714200   -0.514400    0.654600
H     -0.149300   -0.346900   -1.032000
H      2.304200   -0.877000   -1.208000
H      4.549500   -0.764900   -0.181800
H      3.828300   -0.164900    1.345500
H      1.487200   -2.396400    1.316700
H      2.071500   -3.126800   -0.212200
