15
gdb_20157
C     -0.038300    1.572500    0.001800
C      1.477400    1.733600   -0.021200
C      1.981600    0.540200    0.891700
O      0.801700   -0.150000    1.284400
C      0.061500    0.033800    0.064100
C      1.104400   -0.254900   -1.050800
C      2.435000   -0.124700   -0.417500
N      1.916600    0.990200   -1.271700
H     -0.531500    1.985900    0.883800
H     -0.496700    1.950600   -0.915600
H      1.925400    2.719100    0.078100
H      2.656700    0.693400    1.729300
H     -0.846600   -0.564100    0.072100
H      0.909600   -0.871000   -1.918300
H      3.326700   -0.696100   -0.647700
