19
gdb_13016
C     -0.204800    1.430500    0.025800
C     -0.017700   -0.064800    0.010300
C     -0.769200   -0.957800    0.931200
N      0.665700   -0.711200    1.149600
C      1.529000   -1.776700    0.598400
C      1.088900   -2.043900   -0.856400
C      0.446500   -0.707900   -1.292100
O     -0.654800   -0.841200   -2.179600
H      0.723200    1.945300   -0.249100
H     -0.978600    1.720700   -0.692700
H     -0.502700    1.777900    1.018100
H     -1.418200   -0.515500    1.681800
H     -1.095100   -1.931500    0.576000
H      2.559500   -1.405900    0.631000
H      1.481600   -2.667900    1.232300
H      1.922900   -2.342600   -1.497200
H      0.331000   -2.830300   -0.919100
H      1.210200   -0.051900   -1.740400
H     -0.316900   -1.118300   -3.036800
