14
gdb_2064
O     -0.007800   -0.035900   -0.230000
C     -0.010900    1.167400   -0.034400
N     -1.169000    1.874300    0.199500
C     -1.228500    3.324700    0.067600
C     -0.033000    3.966900    0.775700
C      1.241500    3.250500    0.418200
C      1.236600    1.973900    0.027400
H     -2.009600    1.343300    0.023100
H     -1.224500    3.627600   -0.991600
H     -2.167400    3.677300    0.503900
H      0.027400    5.025900    0.503700
H     -0.172000    3.933400    1.866000
H      2.178300    3.792800    0.518900
H      2.142100    1.429000   -0.212800
