15
gdb_6070
C     -0.099800    1.218600   -0.264400
C     -0.190400   -0.267900    0.015700
O      0.670600   -1.053600   -0.292000
C     -1.472500   -0.720000    0.720000
O     -1.532100   -2.125300    0.864100
C     -1.870700   -2.791200   -0.277500
N     -1.792900   -4.136200   -0.063900
O     -2.237400   -2.254900   -1.295600
H      0.915500    1.476600   -0.567200
H     -0.791000    1.473200   -1.076600
H     -0.395100    1.811200    0.608100
H     -1.493400   -0.305100    1.733200
H     -2.341100   -0.344700    0.168700
H     -1.230700   -4.460400    0.705400
H     -1.821200   -4.708900   -0.890400
