16
gdb_10263
C      0.068400    1.539300    0.165500
C      0.019800    0.021200    0.013300
O     -1.296400   -0.489200    0.120600
C      0.683300   -0.464200   -1.320600
C      0.782600   -1.996900   -1.273300
O      1.690400   -2.565400   -0.730300
C     -0.080000   -0.020700   -2.478700
C     -0.762800    0.307000   -3.413600
H      1.100900    1.902000    0.190600
H     -0.445100    2.030500   -0.667800
H     -0.425600    1.827100    1.097100
H      0.580900   -0.450800    0.826300
H     -1.811000   -0.113700   -0.605100
H      1.709100   -0.080000   -1.352600
H     -0.055900   -2.540700   -1.753400
H     -1.335000    0.605400   -4.257600
