16
gdb_15932
O     -0.751400    1.166800    0.708100
C      0.181500    0.900800   -0.008600
C      1.415900    1.745300   -0.119700
C      1.814800    2.676900    1.046800
C      2.003700    3.858300    0.046400
C      1.555200    2.949200   -1.127000
C      2.668100    2.090300   -1.749100
O      2.516300    1.058500   -0.743400
H      0.186600    0.007400   -0.671800
H      0.984800    2.821100    1.741400
H      2.699800    2.342200    1.590700
H      1.330100    4.697200    0.230700
H      3.020800    4.247900   -0.048100
H      0.751000    3.294300   -1.774900
H      2.446000    1.700500   -2.750000
H      3.674700    2.526400   -1.748900
