19
gdb_9407
C     -0.208300    1.404100    0.041500
N      0.001700   -0.031400   -0.036300
C     -0.018100   -0.814800    1.186300
C     -1.411400   -0.956200    1.813100
C     -1.391300   -1.808300    3.076100
O     -2.710700   -1.842000    3.593600
C      0.237100   -0.613500   -1.247400
O      0.270400   -0.039700   -2.315700
H      0.496900    1.855700    0.749600
H     -0.042900    1.816200   -0.954000
H     -1.226700    1.648200    0.363700
H      0.381900   -1.807500    0.950000
H      0.671900   -0.360000    1.911600
H     -1.818700    0.027500    2.070000
H     -2.096900   -1.406100    1.086500
H     -1.028500   -2.821900    2.837200
H     -0.686200   -1.376700    3.806300
H     -2.710600   -2.385200    4.387100
H      0.403900   -1.704600   -1.147800
