15
gdb_84
C     -0.038400    1.556200    0.009400
C      0.019100    0.027200   -0.020700
C      0.731400   -0.527100   -1.254500
C      0.839800   -2.052100   -1.228700
O     -0.012300   -0.085100   -2.389700
H      0.968500    1.988600    0.035300
H     -0.543800    1.938200   -0.880700
H     -0.576500    1.913800    0.892600
H      0.531700   -0.349900    0.872400
H     -0.997300   -0.386400   -0.001900
H      1.749100   -0.099400   -1.288300
H      1.341400   -2.424900   -2.129600
H      1.418200   -2.392300   -0.363400
H     -0.156200   -2.504400   -1.183100
H      0.430900   -0.409000   -3.179800
