15
gdb_4929
C     -0.066400    1.408900    0.011900
O     -0.009500   -0.010700    0.023600
C     -1.197500   -0.650100    0.011000
C     -1.368300   -2.006800    0.027900
N     -2.758600   -2.172000    0.018100
C     -3.313000   -0.936200   -0.009800
N     -4.689500   -0.737000   -0.113000
N     -2.400200    0.014800   -0.004200
H      0.971100    1.748300    0.024300
H     -0.569900    1.782600   -0.886100
H     -0.596000    1.796000    0.889100
H     -0.683400   -2.833400    0.074300
H     -3.249700   -3.041800   -0.093500
H     -5.221100   -1.215400    0.605300
H     -4.888600    0.254900   -0.076400
