14
gdb_715
C     -0.013600    1.490800    0.136800
C      1.503400    1.419400   -0.021700
C      1.971500    0.104900    0.625600
C      0.732200   -0.603200    1.167900
C      0.000000   -0.047300   -0.085200
C      1.417500    0.115800   -0.779100
H     -0.437100    1.861900    1.078200
H     -0.473500    2.016100   -0.705100
H      2.199500    2.232600   -0.183800
H      3.003200   -0.024100    0.927500
H      0.846400   -1.689900    1.119700
H      0.339000   -0.317400    2.151300
H     -0.867300   -0.559100   -0.497200
H      1.828600   -0.203700   -1.725300
