19
gdb_10171
C     -0.216000    1.496900   -0.026100
C     -0.074200   -0.013600   -0.018700
O     -1.395500   -0.573500   -0.052500
C     -1.500900   -1.925200   -0.042800
C     -2.974800   -2.308000   -0.108900
O     -3.829600   -1.355800    0.479200
N     -0.469000   -2.653900   -0.032100
C     -0.558800   -4.099000   -0.045000
H      0.773900    1.962200   -0.005300
H     -0.736300    1.837400   -0.926100
H     -0.775900    1.842900    0.847700
H      0.488500   -0.379800   -0.883600
H      0.441300   -0.375400    0.876700
H     -3.224500   -2.478200   -1.171200
H     -3.134900   -3.257000    0.409600
H     -3.438900   -0.492900    0.299700
H      0.198300   -4.508600    0.631800
H     -1.533100   -4.514400    0.247100
H     -0.323800   -4.476900   -1.048100
