16
gdb_9332
C      0.106100    1.263700   -0.212100
O      0.285800   -0.128900   -0.104200
C      0.641700   -0.534100    1.197300
C      0.804400   -2.046100    1.180500
C      1.187600   -2.613900    2.521000
O      1.356900   -1.964500    3.528500
C      1.376600   -4.136000    2.609400
O      1.235400   -4.880000    1.675900
H      1.026700    1.814700    0.037000
H     -0.165200    1.478500   -1.248300
H     -0.697700    1.624100    0.449100
H      1.579200   -0.052800    1.519000
H     -0.129700   -0.241300    1.927600
H     -0.119500   -2.534300    0.845100
H      1.559200   -2.349200    0.443600
H      1.657700   -4.472500    3.629900
