16
gdb_14644
C      0.012100    1.475500    0.010000
C     -0.012900    0.020700    0.002400
C     -0.040100   -1.182100   -0.003800
C     -0.044300   -2.636400   -0.011600
O     -1.379300   -3.119200   -0.001400
C     -1.419200   -4.533600   -0.008700
C     -2.801500   -4.990900    0.002100
C     -3.931100   -5.397600    0.010800
H      1.041300    1.850900    0.004000
H     -0.496100    1.886900   -0.868800
H     -0.482300    1.877400    0.901100
H      0.488100   -3.011600   -0.903500
H      0.505100   -3.021200    0.865700
H     -0.903700   -4.931200   -0.900500
H     -0.886700   -4.940800    0.868800
H     -4.933500   -5.748100    0.018500
