14
gdb_20455
C      1.039400    1.037900    0.046000
N      0.305800    0.130000   -0.840100
C     -0.348300    0.610800    0.390500
C     -0.614400   -0.406500    1.427200
N     -1.525500   -0.184200    2.347200
O     -1.520200   -1.311600    3.163300
C     -0.605600   -2.176000    2.699000
C      0.011000   -1.676700    1.600900
H      1.881200    0.589000    0.565500
H      1.186000    2.072500   -0.252700
H     -0.057400    0.630900   -1.646100
H     -1.123800    1.366900    0.308700
H     -0.512800   -3.100000    3.248700
H      0.769100   -2.127900    0.984600
