24
gdb_6892
C      2.116500    2.346500   -0.585900
C      1.007200    1.296400   -0.442000
C      1.191800    0.126300   -1.389900
C      2.022000   -1.102800   -1.052900
C      2.738200   -1.288100    0.269100
C      0.516700   -1.223900   -1.221000
C     -0.375900   -1.495100   -0.022500
C      0.020000   -1.903900   -2.485500
H      3.097300    1.919300   -0.352600
H      2.161600    2.733600   -1.610000
H      1.950200    3.196000    0.084300
H      0.967300    0.956600    0.597300
H      0.035100    1.768100   -0.638900
H      1.276300    0.452700   -2.426100
H      2.593400   -1.500900   -1.889600
H      2.200200   -0.848700    1.112200
H      2.879500   -2.351900    0.492100
H      3.731400   -0.825400    0.241200
H     -0.018900   -1.030100    0.898000
H     -1.391200   -1.123100   -0.205900
H     -0.453500   -2.573100    0.163500
H     -0.022400   -2.993000   -2.359800
H     -0.989200   -1.563700   -2.749100
H      0.674500   -1.692800   -3.337200
