20
gdb_8061
C      0.189300    1.363900    0.174900
C      0.111400   -0.136800    0.087800
C      0.609300   -1.053600   -1.075400
C     -0.001600   -2.020400   -0.021700
C      0.752300   -1.186700    1.052800
C     -1.189500   -1.016200    0.080100
C     -2.149100   -1.018800    1.253200
O     -2.825700    0.236300    1.240000
H      1.230300    1.706300    0.182000
H     -0.314000    1.830000   -0.679200
H     -0.301500    1.726400    1.083100
H      0.080400   -0.965300   -2.029300
H      1.691900   -1.112400   -1.220100
H     -0.064100   -3.107600   -0.089200
H      1.844400   -1.250400    1.030600
H      0.389800   -1.223500    2.081700
H     -1.771500   -0.915900   -0.844000
H     -2.861600   -1.851300    1.132600
H     -1.632600   -1.173300    2.210500
H     -3.473500    0.235200    1.950700
