18
gdb_11508
C      0.098700    1.595200   -0.052200
C      0.088800    0.055800   -0.007300
C      0.737900   -0.603600   -1.245900
N     -0.012900   -0.275500   -2.449100
C      0.536100    0.762500   -3.321200
C      0.604500   -0.670300   -3.711800
C      0.754200   -0.430100    1.205700
N      1.292700   -0.812000    2.154600
H      1.121800    1.977700   -0.116800
H     -0.462600    1.940600   -0.922200
H     -0.362900    2.011200    0.846500
H     -0.952400   -0.286400    0.029100
H      1.799400   -0.305400   -1.307700
H      0.713600   -1.690500   -1.115000
H     -0.190500    1.426400   -3.780400
H      1.466700    1.241100   -3.020900
H      1.581500   -1.149300   -3.673400
H     -0.071700   -1.074200   -4.459400
