13
gdb_3797
C      0.002500    1.413500    0.034900
O     -0.006800   -0.004000   -0.006100
C      0.604000   -0.650900    1.003200
C      0.739800   -2.012400    1.182200
C      1.456000   -2.124600    2.392800
N      1.747200   -0.947500    2.932800
N      1.212700   -0.049900    2.059400
H      1.026800    1.809000    0.013600
H     -0.527000    1.750000   -0.856800
H     -0.518200    1.793000    0.924300
H      0.373000   -2.786400    0.530300
H      1.771300   -3.029000    2.893100
H      1.306400    0.930800    2.253000
