15
gdb_16193
O      0.128500   -0.007900   -0.013200
C      0.013400    1.204500    0.000900
C     -1.171400    2.053300    0.034300
C     -0.757100    3.347100    0.034700
N      0.603700    3.490900   -0.093600
C      1.182400    2.172900   -0.032200
C      2.447800    1.852600    0.726500
C      2.439300    1.785700   -0.772400
H     -2.191200    1.703000    0.050000
H     -1.368900    4.239000    0.095600
H      1.065800    4.269900    0.350400
H      2.973400    2.674000    1.203100
H      2.436000    0.920200    1.281200
H      2.417600    0.805600   -1.236900
H      2.950700    2.565300   -1.325700
