16
gdb_3022
O     -0.056000    1.333300   -0.272100
C      0.005300   -0.072300   -0.040400
C     -1.441700   -0.544000    0.109900
O     -2.191300   -0.136400   -1.022000
C     -1.520400   -2.051900    0.234400
C     -2.742400   -2.780300   -0.173400
N     -1.508000   -2.882100   -0.979400
H      0.792800    1.628900   -0.612100
H      0.471300   -0.595000   -0.887500
H      0.577100   -0.304500    0.869800
H     -1.854300   -0.084600    1.024400
H     -1.880100    0.754400   -1.228200
H     -0.925500   -2.452100    1.053900
H     -3.028100   -3.690100    0.346900
H     -3.563400   -2.194400   -0.573800
H     -1.612700   -2.253100   -1.774500
