12
gdb_613
O      0.056200    1.408500   -0.026200
C      0.043800    0.013200    0.018900
C     -0.495700   -0.685800    1.220700
C     -1.311600   -0.654800   -0.077400
C     -2.543600    0.172400   -0.100500
O     -3.546300   -0.134300   -0.697600
H      0.758500    1.719400    0.554800
H      0.845800   -0.473100   -0.535900
H     -0.075600   -1.636500    1.527500
H     -0.862000   -0.058700    2.027600
H     -1.379600   -1.567000   -0.658900
H     -2.483700    1.110100    0.491000
