18
gdb_15532
C     -0.348700    1.494800    0.092300
C     -0.089300    0.022600    0.036100
C      0.134400   -0.735900   -1.039400
C      0.359800   -2.190000   -0.712500
C      0.001200   -2.272000    0.796800
C     -0.012400   -0.810600    1.315000
C      1.269300   -0.432900    2.039300
O      1.340200    0.339100    2.960500
H      0.362700    1.999500    0.756400
H     -0.282900    1.951700   -0.898600
H     -1.347200    1.701200    0.498500
H      0.157100   -0.357000   -2.056200
H     -0.259300   -2.859200   -1.321300
H      1.400400   -2.483900   -0.905400
H     -0.995000   -2.703300    0.924700
H      0.695500   -2.904900    1.358300
H     -0.843200   -0.593600    1.995100
H      2.185700   -0.908400    1.614600
