15
gdb_3475
C     -0.038400    1.569700   -0.057200
C      0.008100    0.079400    0.010600
C      0.583400   -1.006000   -0.904000
C      1.362700   -1.640100    0.246400
C      0.296600   -0.979800    1.156200
O     -0.927600   -1.697600    0.833700
C     -0.884500   -1.030600   -0.426600
H      0.939900    2.015400    0.156600
H     -0.336400    1.898000   -1.059000
H     -0.759700    1.982400    0.657100
H      0.853700   -0.923600   -1.949500
H      1.441500   -2.730300    0.306500
H      2.344500   -1.175100    0.368900
H      0.434600   -0.813600    2.223000
H     -1.750700   -1.066600   -1.074800
