16
gdb_11657
O      0.163500    1.379200   -0.206100
C      0.029800    0.006500   -0.041900
C     -0.008500   -0.669400    1.362800
C     -1.467700   -0.142200    1.528200
C     -1.398800   -0.678900    0.071200
C     -0.615500   -1.904600    0.637200
C     -2.469700   -0.672700   -0.957000
O     -3.527500   -0.104300   -0.831700
H     -0.390000    1.840500    0.433000
H      0.702800   -0.454300   -0.769200
H      0.780900   -0.673700    2.114700
H     -2.112400   -0.699600    2.211000
H     -1.620400    0.931100    1.670200
H      0.035200   -2.444700   -0.055700
H     -1.201600   -2.584900    1.257500
H     -2.219900   -1.227000   -1.891500
