18
gdb_8918
C     -0.027600    1.575800    0.077100
C     -0.012300    0.047900   -0.006500
C      0.725600   -0.473000   -1.242000
O      2.087100   -0.073300   -1.268100
C      0.608000   -2.017000   -1.363700
O     -0.754800   -2.436700   -1.375200
C      1.334500   -2.522800   -2.528500
C      1.866800   -2.936900   -3.523500
H      0.988900    1.977700    0.049600
H     -0.577900    2.009700   -0.765100
H     -0.508100    1.915400    0.999400
H      0.473300   -0.372400    0.888000
H     -1.030200   -0.352900   -0.017100
H      0.285600   -0.034200   -2.147000
H      2.501600   -0.378600   -0.452800
H      1.035800   -2.457100   -0.451300
H     -1.073400   -2.350700   -2.280500
H      2.357100   -3.303900   -4.391300
