12
gdb_21583
N      0.034300    1.420100    0.151300
C     -0.073600    0.045200    0.052900
C     -1.162900   -0.783100    0.042900
N     -0.617700   -2.049100    0.001000
C     -1.317400   -3.271300   -0.030400
O     -0.806100   -4.350100   -0.066600
N      0.739100   -1.984400   -0.010300
N      1.062600   -0.735600    0.018300
H      0.953600    1.747200   -0.113500
H     -0.696400    1.942700   -0.308800
H     -2.224600   -0.610700    0.065600
H     -2.407600   -3.090600   -0.016700
