14
gdb_1873
C      0.119300    1.478700    0.195900
C     -0.038900   -0.004000   -0.112300
C      0.820800   -0.505100   -1.284900
O      1.974300   -1.045200   -0.636600
C      1.673400   -1.293400    0.673000
N      2.393500   -1.888900    1.513500
O      0.452500   -0.797500    0.980500
H      1.176900    1.744600    0.289900
H     -0.321000    2.081000   -0.605500
H     -0.384700    1.726700    1.133100
H     -1.093400   -0.260200   -0.243900
H      0.323600   -1.293000   -1.862000
H      1.138500    0.293200   -1.959400
H      3.248700   -2.214700    1.069600
