18
gdb_17937
C     -0.030300    1.534500   -0.038200
C     -0.009500    0.038000    0.018000
C      0.455900   -1.013600   -0.964400
C      1.300100   -1.695200    0.100400
C      0.503200   -0.876100    1.194400
C     -0.691200   -1.709900    1.594300
C     -1.537600   -1.777200    0.559800
C     -1.039500   -0.908700   -0.542400
H      0.965600    1.958500    0.137000
H     -0.369700    1.881400   -1.020200
H     -0.707600    1.953000    0.715800
H      0.715300   -0.902900   -2.011600
H      1.278200   -2.786900    0.185900
H      2.335900   -1.350700    0.039300
H      1.094500   -0.433000    1.995500
H     -0.745300   -2.283600    2.511700
H     -2.429600   -2.387700    0.491200
H     -1.701500   -0.557300   -1.326800
