16
gdb_15596
O      0.099900    1.495300    0.452300
C      0.035200    0.142900    0.065500
C      0.716600   -0.766400    1.090300
O     -0.238700   -0.841100    2.142400
C     -1.502900   -1.068100    1.526100
C     -1.417300   -0.447500    0.088600
C     -2.467100    0.510200   -0.207300
C     -3.356200    1.286400   -0.434500
H     -0.204700    1.547300    1.366400
H      0.474500    0.086500   -0.932700
H      0.930600   -1.763300    0.670000
H      1.637000   -0.335100    1.488500
H     -1.710600   -2.145300    1.462500
H     -2.271900   -0.598100    2.142100
H     -1.457800   -1.257900   -0.648200
H     -4.130900    1.981600   -0.644100
