16
gdb_2351
C     -0.055500    1.479900    0.162000
C      0.028200   -0.038300    0.112200
O      1.074200   -0.659600    0.199600
N     -1.163100   -0.673800   -0.035500
C     -2.540600   -0.247900   -0.292500
C     -2.920300   -1.748400   -0.460600
C     -1.422900   -2.100900   -0.214700
H      0.942000    1.875600    0.350400
H     -0.428100    1.882000   -0.786600
H     -0.736800    1.815900    0.950600
H     -3.018500    0.269300    0.547900
H     -2.660800    0.366800   -1.192900
H     -3.605800   -2.126400    0.298200
H     -3.298800   -2.014600   -1.447600
H     -0.890100   -2.537600   -1.065900
H     -1.211200   -2.704100    0.673900
