11
gdb_23669
F     -0.002600    0.026400    0.003200
C     -0.027000    1.358300    0.010900
C     -1.244300    2.021100    0.030900
C     -1.187300    3.406100    0.037800
F     -2.317300    4.111400    0.056900
C      0.037400    4.065400    0.024900
N      1.193500    3.402800    0.005700
C      1.167800    2.070400   -0.001300
H     -2.186100    1.487300    0.040700
H      0.069600    5.150700    0.030500
H      2.115300    1.540300   -0.017000
