18
gdb_6143
C     -0.426900    1.533900    0.021200
C      0.082100    0.102100   -0.064800
C     -0.981900   -0.917600    0.317400
C      0.902400   -0.242500   -1.335000
C      2.098100   -0.412600   -0.362700
O      1.271000   -0.066200    0.773200
C      2.689200   -1.739000   -0.268500
C      3.177400   -2.835800   -0.203500
H      0.362600    2.244100   -0.240700
H     -1.271800    1.687300   -0.659200
H     -0.762400    1.756700    1.039100
H     -1.838000   -0.858900   -0.363800
H     -0.573600   -1.931100    0.279600
H     -1.339300   -0.730500    1.335100
H      0.601300   -1.152300   -1.854500
H      1.015000    0.571800   -2.052200
H      2.893200    0.331400   -0.501400
H      3.611800   -3.802700   -0.139000
