20
gdb_11478
C      0.056100    0.867000    0.499100
O     -0.078600   -0.400000   -0.101200
C      0.658100   -0.558300   -1.303400
C      2.150000   -0.824600   -1.063800
O      2.255600   -2.197800   -0.734600
C      1.140000   -2.929800   -1.271200
C      0.471300   -3.701300   -0.138700
C      0.228500   -1.879400   -1.947600
H      1.084500    1.072700    0.830900
H     -0.250700    1.672900   -0.186600
H     -0.598100    0.880000    1.374100
H      0.494500    0.310700   -1.958300
H      2.721500   -0.585200   -1.976700
H      2.569100   -0.237800   -0.240400
H      1.526400   -3.637100   -2.018100
H      0.035700   -3.003200    0.580800
H     -0.320400   -4.350800   -0.527700
H      1.206300   -4.326000    0.376900
H     -0.834300   -2.068500   -1.785900
H      0.413100   -1.838000   -3.024700
