18
gdb_4773
C     -0.301900    1.511300    0.059200
C      0.113300    0.031300   -0.036900
C      0.866700   -0.465200    1.157000
C      2.206700   -0.752700    1.320700
C      2.410000   -1.163800    2.671300
N      3.657800   -1.474400    3.252300
C      1.184100   -1.116600    3.297800
N      0.258500   -0.683400    2.364500
H      0.577000    2.152100    0.175600
H     -0.842700    1.826400   -0.839100
H     -0.953900    1.687000    0.921300
H     -0.782400   -0.583900   -0.201600
H      0.744500   -0.111600   -0.919900
H      2.965100   -0.670100    0.555700
H      4.257800   -1.974800    2.607900
H      3.559900   -2.031500    4.092100
H      0.895600   -1.347700    4.310300
H     -0.723200   -0.569000    2.542500
