16
gdb_9817
C     -0.073000    1.516500   -0.271300
C     -0.010000    0.007800   -0.119100
C      1.370100   -0.637900    0.053800
C      0.461000   -0.557600    1.226300
C     -0.984300   -0.878500   -0.813900
O     -0.969000   -2.091900   -0.719000
C     -2.100400   -0.321900   -1.717400
O     -2.316300    0.834000   -1.964700
H      0.728300    1.972000    0.319100
H      0.053300    1.829100   -1.310600
H     -1.024300    1.924300    0.078300
H      1.505600   -1.607900   -0.409500
H      2.218000    0.035400   -0.003200
H      0.663500    0.172800    2.001600
H     -0.016600   -1.473400    1.553600
H     -2.706300   -1.157200   -2.129500
