15
gdb_21025
C     -0.031000    1.454600   -0.002600
N     -0.069300    0.008900   -0.026600
C     -0.144400   -0.838800   -1.099600
N     -0.159200   -2.088100   -0.750600
N     -0.090100   -2.056500    0.624100
C     -0.082200   -3.266700    1.407500
C     -0.031900   -0.777800    1.133800
O      0.035200   -0.402600    2.289400
H      0.845500    1.836900   -0.534500
H     -0.935300    1.882500   -0.446000
H      0.028700    1.749300    1.046900
H     -0.186500   -0.498000   -2.122500
H      0.781300   -3.888300    1.152700
H     -0.022400   -2.966700    2.455000
H     -0.997300   -3.842700    1.241100
