17
gdb_2438
C     -0.036800    1.529400   -0.025000
C      1.518800    1.456800   -0.005000
C      1.352300    0.122000    0.780100
C     -0.001100   -0.030400    0.017700
C      0.297400   -0.535000   -1.379400
C      1.283500    0.047300   -2.062800
C      2.057100    1.178100   -1.420700
H     -0.427600    1.954000    0.903700
H     -0.524400    1.998800   -0.883700
H      2.066700    2.271900    0.474800
H      2.101500   -0.661600    0.638200
H      1.200800    0.304100    1.847500
H     -0.821300   -0.563500    0.501100
H     -0.287800   -1.350100   -1.794500
H      1.551600   -0.263500   -3.068700
H      1.987000    2.084900   -2.038600
H      3.127200    0.929600   -1.377700
