18
gdb_6512
C     -0.040900    1.540400   -0.056400
C     -0.062600    0.029700    0.061800
C     -1.241000   -0.623300   -0.630400
O      1.196000   -0.629800   -0.141600
C      0.628500   -0.673400    1.184400
C      1.409600    0.047300    2.268600
C      0.148200   -1.972600    1.610300
C     -0.224800   -3.037700    2.025700
H      0.870200    1.976800    0.351900
H     -0.102800    1.823900   -1.112800
H     -0.903400    1.979900    0.455700
H     -1.214000   -0.391700   -1.700600
H     -1.223300   -1.706300   -0.507000
H     -2.185200   -0.240300   -0.228500
H      1.804200    0.999600    1.915000
H      0.774100    0.225200    3.141500
H      2.251100   -0.574800    2.587200
H     -0.558200   -3.983300    2.376200
