16
gdb_5621
C     -0.586300    1.022500    0.048800
N      0.405700   -0.031300   -0.186400
C      0.911300   -0.666400    0.983000
C      1.729100   -0.214400    2.002500
N      1.893300   -1.246800    2.881900
C      1.196600   -2.366000    2.459100
C      0.582200   -2.021000    1.280100
O     -0.204200   -2.795400    0.490400
H     -0.208400    1.866000    0.647500
H     -0.938200    1.410400   -0.912700
H     -1.442400    0.595900    0.579200
H      1.156200    0.323500   -0.768100
H      2.202000    0.741200    2.163200
H      2.447900   -1.206600    3.717100
H      1.207600   -3.286700    3.016300
H     -0.402400   -2.235200   -0.276200
