19
gdb_9277
C      0.137100    1.499600    0.171200
C      0.011500   -0.015400   -0.018900
C      0.683300   -0.473200   -1.314600
O      0.008000    0.137900   -2.403400
C      0.590400   -0.806800    1.166100
N     -0.086100   -0.534600    2.423700
C      0.534500    0.001800    3.509000
O      1.706100    0.308500    3.570500
H      1.186800    1.788500    0.299400
H     -0.258700    2.022900   -0.701600
H     -0.408800    1.835000    1.057000
H     -1.054300   -0.270700   -0.115900
H      1.748700   -0.189300   -1.294900
H      0.637900   -1.572200   -1.390200
H      0.484200   -0.073500   -3.211300
H      0.543000   -1.883200    0.952800
H      1.639900   -0.546800    1.329700
H     -1.068800   -0.745500    2.499600
H     -0.168000    0.129500    4.357000
