16
gdb_13824
C     -0.026200    1.493600    0.010200
C      0.030400   -0.022200   -0.013400
O      1.083800   -0.623600   -0.069100
C     -1.269300   -0.743300    0.034900
C     -1.401900   -2.072000    0.021600
C     -2.847800   -2.446200    0.081500
O     -3.556100   -1.210500    0.131000
C     -2.643200   -0.116700    0.105900
H      0.984600    1.900000   -0.029000
H     -0.608100    1.868700   -0.840000
H     -0.530200    1.844400    0.918500
H     -0.584600   -2.779700   -0.025500
H     -3.163600   -3.029700   -0.798400
H     -3.083800   -3.054900    0.969300
H     -2.780100    0.500900    1.007500
H     -2.859800    0.526800   -0.761200
