20
gdb_15911
C     -0.124800    1.513700   -0.116200
O     -0.076400    0.151800    0.253500
C     -1.299600   -0.520500    0.118000
C     -1.570800   -1.252400   -1.232500
C     -0.582000   -1.082700   -2.367900
O     -1.442700   -2.540500   -0.584100
C     -1.277800   -1.942900    0.724300
C     -0.023300   -2.411700    1.432600
H      0.862800    1.936600    0.082700
H     -0.358300    1.648400   -1.181600
H     -0.874100    2.062500    0.474800
H     -2.124200    0.117500    0.463500
H     -2.600000   -1.107400   -1.591800
H      0.443200   -1.072300   -1.991000
H     -0.689900   -1.915300   -3.069900
H     -0.767000   -0.152100   -2.915500
H     -2.161600   -2.141900    1.347100
H      0.869500   -2.159000    0.858000
H      0.056500   -1.946400    2.420300
H     -0.065200   -3.497300    1.564900
