20
gdb_16669
C      0.570300    1.384200   -0.375800
C      0.041200    0.029600    0.095200
O      0.090700   -0.915100   -0.990300
C      1.006300   -1.936800   -0.706600
C      2.449100   -1.563800   -0.473200
C      1.508400   -1.818200    0.695400
C      0.771900   -0.635000    1.312200
C      1.640300    0.293400    2.166800
H      1.635500    1.357900   -0.619800
H      0.027700    1.684100   -1.276500
H      0.412000    2.152700    0.387500
H     -1.020900    0.159700    0.339400
H      0.740200   -2.873100   -1.184300
H      3.201100   -2.321700   -0.668000
H      2.766100   -0.552300   -0.699900
H      1.682100   -2.688900    1.317900
H     -0.002400   -1.057100    1.964700
H      2.470000    0.717400    1.594400
H      1.058100    1.121800    2.583500
H      2.069600   -0.261800    3.006800
