12
gdb_679
C     -0.024200    1.505800   -0.045000
O      1.054000    1.967400    0.762300
C      2.058600    0.962100    0.848200
C      1.350700   -0.346000    0.572700
O      0.157600   -0.506700    1.346700
C      0.041900   -0.004400    0.011500
H     -0.949700    1.920900    0.367100
H      0.075000    1.837800   -1.091900
H      2.854900    1.112200    0.100300
H      2.502300    1.019800    1.847500
H      1.902000   -1.249900    0.329300
H     -0.497500   -0.623600   -0.699700
