16
gdb_16585
C     -0.048200    1.556800   -0.034100
C      0.097600    0.047800   -0.096300
C      0.703300   -0.731700   -1.207300
C      1.381700   -0.710900    0.217200
C      2.566500   -0.103800   -0.442600
O      3.739000   -0.066200   -0.173800
C      1.882600    0.020900   -1.837700
O      2.589700   -0.743100   -2.786600
H      0.827100    2.083200   -0.420600
H     -0.919100    1.883000   -0.612500
H     -0.194600    1.878500    1.001700
H     -0.749600   -0.471600    0.348700
H      0.235800   -1.589900   -1.671500
H      1.419700   -1.467900    0.991600
H      1.655400    1.021900   -2.224800
H      3.527800   -0.641100   -2.581200
