13
gdb_3196
C     -0.002800    1.557500    0.011800
O      1.391400    1.881100    0.039500
C      2.043000    0.587300   -0.003500
O      1.197300   -0.179700   -0.827900
C      0.034200   -0.006500    0.002800
C      0.556200   -0.411800    1.375200
C      1.838700   -0.043700    1.372700
H     -0.516200    1.974500    0.884000
H     -0.451600    1.946000   -0.908300
H      3.043000    0.697100   -0.416600
H     -0.833600   -0.516000   -0.409800
H     -0.047500   -0.780300    2.192600
H      2.554400   -0.039400    2.182200
