13
gdb_20466
C      0.323600    1.505300    0.122500
O      1.109400    0.381900   -0.261800
C     -0.272800    0.160500    0.044100
C     -0.578600   -0.633200    1.245200
C     -1.440400   -1.665100    1.462900
C     -1.256700   -1.960800    2.839200
N     -0.366100   -1.180700    3.399500
O      0.066100   -0.330500    2.385800
H      0.553200    1.922700    1.100300
H      0.107700    2.224300   -0.666500
H     -0.893100   -0.089300   -0.814800
H     -2.096000   -2.142200    0.754100
H     -1.741100   -2.717800    3.439800
