18
gdb_7254
C      0.259700    1.552000    0.243300
C     -0.042400    0.083100   -0.055200
C      0.280100   -0.829900    1.148900
C     -1.497900   -0.119500   -0.461800
O     -2.354100    0.719100   -0.303800
C     -1.868500   -1.489800   -1.051800
C     -2.787200   -2.229600   -0.091900
O     -2.549400   -3.316500    0.364700
H      1.311400    1.675800    0.517800
H      0.051500    2.184900   -0.623400
H     -0.359500    1.913100    1.068700
H      0.571000   -0.257000   -0.901900
H     -0.292400   -0.519400    2.029200
H      0.051400   -1.881200    0.951600
H      1.343000   -0.757400    1.396500
H     -2.436700   -1.290000   -1.968100
H     -1.003100   -2.114000   -1.278600
H     -3.706500   -1.666600    0.173500
