17
gdb_3362
C     -0.098100    1.554400    0.049700
C      0.050000    0.053000   -0.040900
C      0.713200   -0.666600   -1.190700
C      1.666300    0.101600   -2.111100
C      2.796200    0.521600   -1.193200
C      2.626400    0.062300    0.049600
C      1.355200   -0.701300    0.194600
H      0.814100    2.075200   -0.250500
H     -0.913600    1.903300   -0.594400
H     -0.332800    1.860400    1.075200
H     -0.814500   -0.483600    0.345300
H      0.214500   -1.541900   -1.591100
H      2.028200   -0.534000   -2.930200
H      1.184800    0.966500   -2.587900
H      3.617300    1.146500   -1.527100
H      3.304600    0.234700    0.878000
H      1.329100   -1.582700    0.827000
