13
gdb_18925
O     -0.002600    0.095300    0.047200
C     -0.024800    1.287400    0.024200
C     -1.178100    2.308900   -0.041300
N     -0.904100    2.915500    1.323100
C      0.272200    3.534100    0.646900
C     -0.344500    3.455200   -0.761600
O      0.837200    2.865300   -1.340600
C      1.094100    2.348500    0.010000
H     -2.182200    1.979100   -0.289900
H     -1.589200    3.649900    1.496300
H      0.789800    4.376700    1.101100
H     -0.822600    4.234600   -1.353900
H      2.128500    2.089800    0.216200
