18
gdb_17208
C     -0.253000    1.342900    0.204300
C      1.179000    0.879000   -0.044300
C      0.048700   -0.095900   -0.048800
O     -0.077200   -1.090800    0.975900
C     -0.455400   -2.088000   -0.001000
C     -1.986100   -2.228900   -0.158700
C     -1.960200   -1.151500   -1.290200
C     -0.415600   -1.037200   -1.149300
H     -0.515500    1.620500    1.219500
H     -0.757200    1.915600   -0.567900
H      1.651100    1.133800   -0.988100
H      1.848900    0.852200    0.808600
H      0.162700   -2.986200    0.070000
H     -2.299400   -3.216800   -0.507600
H     -2.544500   -1.978000    0.745500
H     -2.278000   -1.537300   -2.261300
H     -2.507800   -0.227500   -1.089100
H      0.199700   -1.111400   -2.045400
