15
gdb_11444
O      0.044100    1.300300    0.319400
C     -0.014500   -0.098200    0.173400
C     -1.422500   -0.565500   -0.189300
C     -1.609400   -2.088000   -0.167100
O     -2.170700   -2.332700    1.125800
C     -2.653300   -1.165400    1.640500
N     -3.304200   -1.014600    2.703600
O     -2.332800   -0.122400    0.832900
H     -0.623500    1.540900    0.973200
H      0.675800   -0.367300   -0.634000
H      0.313800   -0.625600    1.085000
H     -1.740800   -0.104500   -1.127200
H     -2.302300   -2.438800   -0.938800
H     -0.668300   -2.638200   -0.249500
H     -3.473300   -1.916100    3.143000
