16
gdb_12713
C     -0.190000    1.544000   -0.070100
C      0.022400    0.050800    0.014400
C     -1.175500   -0.875500    0.354700
O     -0.412800   -1.606000    1.337600
C      0.746800   -0.778500    1.134400
C      1.729300   -1.389500    0.106700
C      0.971900   -0.621300   -0.997600
O      1.107100   -0.513200   -2.181500
H      0.761900    2.084100   -0.087300
H     -0.726300    1.796900   -0.991100
H     -0.776500    1.910400    0.778600
H     -2.011600   -0.335500    0.817600
H     -1.561000   -1.515100   -0.447600
H      1.146800   -0.364700    2.062100
H      2.757800   -1.023000    0.203700
H      1.740700   -2.479800    0.040700
