16
gdb_10648
O      0.770900   -0.131000   -0.662400
C     -0.177700    0.289600    0.318200
C     -1.551800   -0.375700    0.174200
C     -2.026200   -0.836100   -1.212100
C     -1.605100   -1.859300   -0.197400
O     -0.449500   -2.612800   -0.328400
C     -2.525900    0.135900    1.093900
C     -3.321700    0.579800    1.880600
H      0.582300    0.332300   -1.484300
H      0.253300    0.013800    1.285100
H     -0.292800    1.380400    0.303700
H     -3.077400   -0.716900   -1.447200
H     -1.351800   -0.667400   -2.045700
H     -2.388400   -2.442400    0.274700
H      0.254800   -2.018100   -0.627600
H     -4.030100    0.961300    2.573400
