15
gdb_16400
N     -0.089500    1.268300   -0.248400
C     -0.046400    0.038400    0.036900
O      1.115100   -0.615300    0.343900
C      1.042300   -1.995200    0.756300
C     -0.362400   -2.546200    0.581900
C     -0.962000   -2.127800   -0.774600
C     -1.268000   -0.843500    0.026400
O     -1.261000   -1.623800    1.260900
H      0.846700    1.678300   -0.200000
H      1.771500   -2.553100    0.157900
H      1.334700   -2.044600    1.811000
H     -0.450700   -3.576700    0.935500
H     -0.306400   -2.059100   -1.644700
H     -1.870100   -2.682700   -1.009900
H     -2.180700   -0.272000   -0.131800
