20
gdb_9505
C     -0.661100    1.214500   -0.035800
C      0.157400   -0.065500   -0.100300
C      1.544300   -0.050400   -0.796800
C      2.092000   -0.993500    0.303800
C      0.875800   -0.639500    1.200200
C      1.164800    0.400500    2.283100
C      0.117900   -1.805800    1.782300
O      0.334800   -2.968400    1.546900
H     -0.089900    2.044100    0.392500
H     -0.968800    1.514800   -1.043700
H     -1.570800    1.088200    0.561300
H     -0.453700   -0.865400   -0.533100
H      1.581400   -0.403700   -1.830000
H      2.002900    0.942700   -0.757200
H      2.063500   -2.046800    0.017600
H      3.077900   -0.763800    0.715100
H      1.654700    1.284600    1.865400
H      0.247600    0.731700    2.782700
H      1.831600   -0.015400    3.046400
H     -0.726200   -1.512800    2.452800
