14
gdb_13647
C     -0.125900    1.503800   -0.139600
C     -0.009500    0.011300    0.029300
N      1.311100   -0.582500   -0.166900
C      0.710000   -0.621800    1.190100
C      1.348000    0.152100    2.211600
C      1.858400    0.794000    3.100400
C      2.437900    1.520300    4.099100
N      2.929300    2.138800    4.951600
H      0.760800    2.008300    0.250200
H     -0.225000    1.756700   -1.200000
H     -1.006600    1.885800    0.386400
H     -0.867800   -0.562400   -0.318700
H      1.243100   -1.506300   -0.586500
H      0.313600   -1.572600    1.540000
