14
gdb_17984
C      0.139300   -1.139400    0.279200
C      0.099700    0.054500    0.150200
C      0.042900    1.490100   -0.025200
O     -0.349500    2.235300    1.171300
C      0.829500    3.055600    1.115100
C      2.027000    2.453600    1.869300
O      2.440100    1.720800    0.681700
C      1.381900    2.281500   -0.094800
H      0.183900   -2.194100    0.396800
H     -0.631300    1.750500   -0.852700
H      0.615700    4.122300    1.189300
H      2.799000    3.169800    2.175700
H      1.763700    1.795600    2.703000
H      1.705300    2.665100   -1.063500
