18
gdb_16910
C      0.002200    1.517500    0.058500
C      0.035300    0.000600   -0.022700
C      0.685500   -0.506100   -1.305900
O      0.682000   -1.925600   -1.378900
C      0.960300   -2.589200   -0.181000
C      2.248900   -2.414500    0.590000
C      0.944000   -1.855600    1.129600
O      0.789600   -0.464100    1.099600
H      1.012300    1.930200   -0.026400
H     -0.615700    1.934500   -0.742300
H     -0.413700    1.832000    1.019000
H     -0.987800   -0.405400    0.030900
H      0.135000   -0.160600   -2.186100
H      1.712600   -0.112000   -1.365100
H      0.531900   -3.585500   -0.214100
H      2.687900   -3.289400    1.057200
H      2.960200   -1.673800    0.242600
H      0.482700   -2.317600    2.000200
