13
gdb_23654
C      0.002700    1.502900   -0.005000
C      0.019000    0.001500    0.032600
N      0.158800   -0.633700   -1.146300
C      0.172800   -1.959300   -1.108600
N      0.063300   -2.742100   -0.027800
C     -0.071700   -2.094800    1.106800
F     -0.183300   -2.832100    2.201400
C     -0.103500   -0.710300    1.221500
H      0.931600    1.875200   -0.448000
H     -0.815300    1.851500   -0.643000
H     -0.114300    1.934600    0.991300
H      0.285500   -2.474500   -2.059200
H     -0.217100   -0.228900    2.184100
