19
gdb_12112
O     -0.074600    1.382000   -0.025000
C      0.008200   -0.014700   -0.043000
C      1.045500   -0.519400   -1.021600
N      2.326800    0.118600   -0.714800
C      3.274400   -0.640600    0.095600
C      3.513600   -0.428300   -1.359100
C     -0.245400   -0.753300    1.252600
C     -1.285900   -0.734800    0.144900
H      0.843900    1.687100   -0.027200
H      1.102800   -1.620800   -0.999200
H      0.761800   -0.215600   -2.036700
H      3.830600   -0.072500    0.835400
H      2.983400   -1.640200    0.412800
H      3.383200   -1.287500   -2.015000
H      4.246400    0.297500   -1.700100
H      0.279800   -1.682100    1.449700
H     -0.442000   -0.142200    2.125700
H     -2.161800   -0.113700    0.293500
H     -1.464500   -1.646500   -0.415800
