16
gdb_10549
C      0.053900    0.720700    0.382100
O      0.979400    0.459200   -0.661000
C      0.536200   -0.479700   -1.611200
C      0.528200   -1.919000   -1.074400
C      1.505100   -2.903000   -1.644200
N      1.711500   -2.358100   -0.307600
C     -0.741400   -2.404800   -0.575600
N     -1.777200   -2.768400   -0.211900
H     -0.917100    1.044500   -0.019400
H     -0.106600   -0.156200    1.022200
H      0.478700    1.526300    0.984500
H     -0.462600   -0.222600   -1.992900
H      1.247800   -0.413900   -2.439500
H      1.241900   -3.955800   -1.673100
H      2.120200   -2.556500   -2.470800
H      2.380000   -1.589100   -0.312900
