18
gdb_7653
C      0.210400    1.526800    0.082400
C     -0.057500    0.033900   -0.042700
C      0.955800   -0.769600   -0.915100
N      1.428300   -1.437600    0.301700
C      0.398000   -0.839800    1.165000
C      1.950200   -2.707600    0.322700
N      1.942600   -3.303000    1.579400
O      2.356300   -3.268800   -0.679000
H      1.251500    1.715800    0.367600
H      0.025400    2.040300   -0.867000
H     -0.434500    1.983700    0.840700
H     -1.097400   -0.144000   -0.324600
H      0.514600   -1.462600   -1.638600
H      1.721500   -0.172500   -1.422200
H      0.793900   -0.280400    2.022400
H     -0.344200   -1.562100    1.525400
H      2.016100   -2.697600    2.383300
H      2.532700   -4.120100    1.622900
