19
gdb_17636
C     -0.339900    1.790500   -0.404800
C     -0.087300    0.307900   -0.093900
C     -1.390400   -0.451200    0.108800
C     -1.443200   -1.680100    0.979600
C     -2.105700   -0.400600    1.433000
C      0.670400   -0.337300   -1.260800
N      1.826000   -0.984900   -0.930900
O      0.264100   -0.274900   -2.406000
H      0.599500    2.347200   -0.482200
H     -0.864800    1.882200   -1.358900
H     -0.948800    2.247200    0.380500
H      0.508100    0.226800    0.825400
H     -2.011400   -0.467700   -0.781900
H     -2.070800   -2.507900    0.669400
H     -0.534200   -1.983700    1.489700
H     -1.637500    0.150200    2.243000
H     -3.188900   -0.351100    1.434100
H      2.117300   -1.110000    0.021900
H      2.311900   -1.488300   -1.655700
