13
gdb_8832
C      0.018000    1.364500   -0.023400
O      0.097800   -0.074500    0.027800
C      0.647800   -0.585500    1.119200
O      1.109900    0.031500    2.045600
C      0.650100   -2.127300    1.103300
O      1.427100   -2.612100    2.155200
C     -0.747100   -2.613500    1.167600
N     -1.834700   -2.997900    1.223500
H      1.018900    1.798600    0.023500
H     -0.460400    1.595400   -0.973600
H     -0.578700    1.737100    0.811600
H      1.071500   -2.459300    0.145700
H      1.530700   -1.868800    2.770900
