14
gdb_21076
C     -0.012500    1.426000   -0.037300
N     -0.024400   -0.018400    0.010200
N     -0.081100   -0.752400   -1.134300
C     -0.040200   -2.021600   -0.733600
C      0.067500   -2.117400    0.668100
O      0.076900   -3.196000    1.524500
C      0.076900   -0.806200    1.102300
O      0.149300   -0.276800    2.342500
H      1.002500    1.824000    0.071600
H     -0.413100    1.722600   -1.006500
H     -0.637100    1.830700    0.762600
H     -0.087000   -2.819400   -1.460600
H      0.803700   -3.780100    1.285300
H      0.170100   -1.018400    2.960400
