16
gdb_15329
C      0.119100    1.534500    0.052100
C      0.073900    0.079700    0.069900
C      0.032000   -1.124300    0.082600
C      0.020600   -2.560500    0.089000
C     -0.558600   -3.327100    1.244400
C     -1.286900   -3.358400   -0.085200
C     -2.575100   -2.636600   -0.206300
O     -3.500900   -3.013300   -0.881700
H      0.973800    1.894300   -0.531200
H     -0.787600    1.955400   -0.396300
H      0.212000    1.944900    1.063700
H      0.868700   -3.024000   -0.407200
H     -0.064600   -4.237700    1.561900
H     -1.009700   -2.747700    2.042500
H     -1.224000   -4.263000   -0.679300
H     -2.634600   -1.699900    0.391000
