18
gdb_18993
C     -0.019800    1.518000   -0.208700
O      1.360000    1.624400    0.214800
C      1.451300    0.196400    0.435900
C      1.473500   -0.271400    1.900100
C      0.569000   -1.543000    1.784700
C     -0.538900   -0.479700    1.481900
C      0.221600    0.428300    2.492800
C     -0.055200    0.009700    0.103300
H     -0.685600    2.164900    0.376100
H     -0.128900    1.762900   -1.272700
H      2.218500   -0.264300   -0.194100
H      2.432100   -0.283300    2.418400
H      0.801400   -2.277600    1.006400
H      0.430100   -2.044300    2.744800
H     -1.600000   -0.702000    1.598200
H      0.034700    0.124600    3.524800
H      0.152000    1.513000    2.401600
H     -0.342600   -0.650500   -0.715800
