22
gdb_7546
C      0.156600    1.582900   -0.059200
C      0.368900    0.067100   -0.057100
C      0.252900   -0.544000    1.348500
C      0.526600   -2.038800    1.378100
C     -0.539600   -2.913000    0.745300
O      1.874900   -2.421300    1.036700
C      1.424500   -2.657100    2.376700
C      2.149500   -1.947900    3.491800
H      0.893300    2.087400    0.576100
H      0.250100    1.996200   -1.068300
H     -0.838300    1.846700    0.317400
H     -0.358300   -0.401000   -0.731300
H      1.360600   -0.173300   -0.457100
H      0.949400   -0.022600    2.011600
H     -0.753500   -0.362700    1.749700
H     -0.696100   -2.647300   -0.304800
H     -0.246700   -3.965000    0.784900
H     -1.496500   -2.797300    1.266300
H      1.236700   -3.714000    2.586100
H      2.356700   -0.903900    3.251200
H      1.563300   -1.986900    4.416600
H      3.107900   -2.442000    3.684200
