13
gdb_2455
O     -0.001900    0.019800   -0.267600
C     -0.013200    1.180500    0.039300
C     -1.279400    2.028400    0.272300
C     -0.768400    3.316600    0.869300
O     -0.011700    3.110100    2.068800
C      0.706900    3.336200    0.849600
C      1.235800    2.061800    0.238700
H     -1.781900    2.194900   -0.688800
H     -1.978200    1.493000    0.920900
H     -1.364300    4.224700    0.841400
H      1.277600    4.259700    0.806200
H      1.965700    1.545300    0.868300
H      1.707900    2.241200   -0.735400
