15
gdb_20575
C      0.040400    1.442600   -0.404800
C      0.013800    0.057100    0.244900
O      0.424200    0.188900    1.590200
C     -1.342500   -0.593700    0.137100
N     -1.929800   -1.027000    1.225800
O     -3.129700   -1.599400    0.823300
C     -3.225800   -1.488300   -0.509300
C     -2.134200   -0.866000   -1.018200
H      1.035000    1.877600   -0.279100
H     -0.180700    1.384400   -1.474900
H     -0.690000    2.099300    0.075500
H      0.723200   -0.591300   -0.299500
H     -0.107900   -0.413900    2.124100
H     -4.123600   -1.894200   -0.949500
H     -1.921400   -0.635200   -2.048400
