20
gdb_6214
C      0.044100    1.614500   -0.032500
C      0.039500    0.082300    0.028300
C      0.737500   -0.600000   -1.177100
C      1.502000   -1.826600   -0.620000
C      0.783200   -3.157800   -0.878900
O      2.790700   -1.846500   -1.247600
C      1.581200   -1.508400    0.862200
C      0.794200   -0.493600    1.206800
H      1.069000    1.999100   -0.071600
H     -0.485500    1.974200   -0.921000
H     -0.445900    2.048700    0.845800
H     -1.009900   -0.245000    0.084800
H      0.043300   -0.867800   -1.978300
H      1.486200    0.076900   -1.599300
H      0.751300   -3.364200   -1.953400
H      1.303100   -3.988100   -0.384400
H     -0.240900   -3.136100   -0.493500
H      3.239300   -2.654800   -0.977100
H      2.197500   -2.094300    1.537600
H      0.667200   -0.109800    2.214700
