17
gdb_9066
C     -0.124100    1.418900    0.038600
N      0.001800   -0.027200   -0.036600
C     -0.012900   -0.802200    1.186800
C     -1.422900   -0.934000    1.813700
C     -1.395000   -1.707600    3.047000
C     -1.327300   -2.352600    4.058700
C      0.153100   -0.629800   -1.253500
O      0.170000   -0.063500   -2.325200
H      0.650500    1.837900    0.691700
H     -0.005300    1.813000   -0.970700
H     -1.104000    1.721900    0.425100
H      0.372600   -1.802600    0.970000
H      0.665100   -0.347100    1.918600
H     -1.834200    0.062900    2.012000
H     -2.091800   -1.406500    1.084000
H     -1.286800   -2.920700    4.955000
H      0.267200   -1.727200   -1.151700
