17
gdb_18905
C     -0.121200    1.528800    0.015700
C     -0.015400    0.039500    0.007100
C      0.719900   -0.868300   -1.043800
C      1.826200   -1.180100   -0.004800
C      0.725500   -0.880100    1.043700
C     -0.444700   -1.834800    0.742500
C     -0.448600   -1.826500   -0.747100
N     -1.286300   -0.831600    0.005500
H      0.871700    1.992000    0.012700
H     -0.668200    1.882300   -0.865200
H     -0.658400    1.873000    0.906300
H      0.926200   -0.578100   -2.072400
H      2.280400   -2.175300   -0.011700
H      2.608100   -0.413600   -0.002600
H      0.937400   -0.601500    2.074400
H     -0.886500   -2.605400    1.362300
H     -0.893700   -2.590100   -1.373100
