16
gdb_20371
C     -0.214100    1.310200   -0.289500
C      1.205600    1.083300    0.182300
C      0.234500   -0.063900    0.126200
N     -0.262000   -0.677100    1.325000
C     -0.568400   -0.112100    2.520200
C     -1.005500   -1.129600    3.344500
C     -0.925100   -2.285300    2.545000
N     -0.475000   -2.009900    1.322400
H     -0.888400    1.838400    0.375500
H     -0.395400    1.487300   -1.343600
H      2.010100    1.102700   -0.544200
H      1.478100    1.460100    1.161900
H      0.365400   -0.822900   -0.633000
H     -0.456900    0.945900    2.695600
H     -1.331500   -1.042200    4.368100
H     -1.174200   -3.304000    2.803200
