12
gdb_450
O      0.030000    0.003700    0.232800
C     -0.040400    1.195300    0.165300
C     -1.285500    2.073000    0.061000
C     -0.772200    3.468400    0.426400
C      0.707400    3.375300    0.018400
O      1.066100    1.992000    0.163900
H     -1.644700    2.022900   -0.973600
H     -2.076700    1.684800    0.702900
H     -1.291600    4.282300   -0.082800
H     -0.855300    3.635500    1.504400
H      0.863600    3.668700   -1.026900
H      1.377500    3.962700    0.649300
