17
gdb_6668
C     -0.168900    1.367600    0.418100
C      0.016800   -0.002900   -0.205800
O      1.040200   -0.318400   -0.771100
C     -1.156100   -0.964400   -0.082800
C     -0.811300   -2.376600   -0.565000
N     -1.960500   -3.273500   -0.552800
C     -2.498700   -3.745200    0.599100
O     -2.117700   -3.443900    1.712500
H      0.678700    2.007600    0.170600
H     -1.101300    1.829900    0.076300
H     -0.245100    1.269400    1.507300
H     -1.498000   -1.002000    0.957200
H     -1.996000   -0.553100   -0.660300
H     -0.412000   -2.340900   -1.579800
H     -0.029500   -2.793600    0.076300
H     -2.343400   -3.593800   -1.426900
H     -3.337800   -4.445500    0.413800
