16
gdb_18809
C     -0.005000    1.529500    0.203600
C      1.528400    1.411400   -0.031700
O      2.219500    1.152700    1.175500
C      1.588800    0.112200    1.924800
C      0.864400   -0.806600    0.951600
O      1.811500   -1.080200   -0.123700
C      1.255400    0.043600   -0.808800
C     -0.068100    0.008000   -0.019900
H     -0.328100    1.956700    1.156400
H     -0.501900    2.060800   -0.613600
H      2.058700    2.217600   -0.538900
H      2.381600   -0.428700    2.450700
H      0.893900    0.524800    2.672700
H      0.473000   -1.717400    1.411200
H      1.377000    0.022600   -1.893000
H     -0.974100   -0.498000   -0.352600
