14
gdb_8329
O      0.000100    0.131300   -0.697700
C     -0.091100    1.168700   -0.130200
C     -1.181200    2.154000    0.290100
C     -0.006000    2.950100    0.873000
C      0.322600    4.408700    0.529700
O      0.288000    4.774600    1.924800
C      0.109400    3.402800    2.334200
O      0.925000    1.925300    0.411800
H     -1.715100    2.619700   -0.540300
H     -1.898300    1.755300    1.010000
H      1.316300    4.538200    0.084000
H     -0.422600    4.952700   -0.062000
H     -0.779800    3.267800    2.960800
H      0.989700    2.997600    2.847600
