15
gdb_597
O      0.200500    1.246000   -0.246300
C     -0.009200   -0.117200    0.055900
C     -1.497900   -0.423800    0.208000
N     -2.180400   -0.026100   -1.022200
C     -2.414600   -1.069200   -2.017600
C     -3.539800   -0.509900   -1.218100
H     -0.479800    1.466500   -0.896800
H      0.418800   -0.773300   -0.721900
H      0.516600   -0.333100    0.992300
H     -1.652000   -1.489100    0.455100
H     -1.908300    0.177900    1.027100
H     -2.276700   -0.777900   -3.054600
H     -2.087300   -2.079900   -1.779600
H     -3.966600   -1.147900   -0.446100
H     -4.236200    0.195800   -1.662000
