11
gdb_11155
O      0.074000    0.021700    0.002500
C     -0.031000    1.205100    0.010300
C     -1.243700    2.127600    0.032000
N     -0.707600    3.481500    0.031500
C      0.559700    3.344400    0.012600
O      1.072800    2.058900   -0.001000
C      1.523500    4.385200    0.004700
C      2.348600    5.258000   -0.002100
H     -1.881400    1.949900   -0.841000
H     -1.856700    1.940800    0.920700
H      3.074000    6.034900   -0.008100
