18
gdb_13119
C     -0.894600    0.685700   -0.138800
O      0.032500    0.499000   -1.183700
C      1.226200   -0.149300   -0.794500
C      1.065200   -1.656300   -0.590500
C      0.732000   -2.548800   -1.826500
C      1.947300   -3.474200   -1.510800
C      2.371900   -2.460300   -0.436300
O      3.365600   -2.293700    0.210100
H     -1.296400   -0.263200    0.247000
H     -0.450000    1.238600    0.703400
H     -1.723300    1.269800   -0.546400
H      1.939000    0.035000   -1.605800
H      1.640600    0.301600    0.120800
H      0.400200   -1.859600    0.257400
H     -0.246100   -3.030100   -1.812600
H      0.839700   -2.006800   -2.768600
H      1.674900   -4.441100   -1.075000
H      2.676900   -3.651900   -2.305400
