15
gdb_16750
O     -0.037400   -0.022600    0.024300
C      0.021000    1.189100    0.023400
N      1.173600    1.910000    0.029600
C      2.473800    1.269100   -0.174300
C      3.266800    2.328200   -0.912300
O      2.599700    2.825200   -2.077400
C      2.520200    3.590600   -0.874500
C      1.233400    3.364500   -0.103500
H     -0.876100    1.839800    0.026000
H      2.965800    1.021900    0.776500
H      2.334700    0.342600   -0.736500
H      4.349800    2.270100   -0.965200
H      2.984000    4.572500   -0.890200
H      0.350100    3.742600   -0.627600
H      1.298300    3.870600    0.870800
