20
gdb_8387
C     -0.245200    1.497200    0.429600
C     -0.173600   -0.005700    0.368900
O      0.979900   -0.573500   -0.277800
C      0.814100   -0.796400    1.112100
C      1.799600   -0.353300    2.197000
C      1.362300   -1.604200    3.028700
C      0.418300   -1.290400    4.184400
C      0.657100   -2.175700    1.755200
H      0.715100    1.922600    0.731600
H     -0.508200    1.909600   -0.550200
H     -1.011600    1.817500    1.144400
H     -1.108200   -0.505000    0.102000
H      2.834400   -0.412800    1.848100
H      1.639000    0.626100    2.657400
H      2.196500   -2.213400    3.385000
H     -0.426800   -0.677300    3.850000
H      0.009700   -2.207700    4.622200
H      0.933800   -0.739500    4.978700
H     -0.359200   -2.561000    1.880500
H      1.259100   -2.928400    1.237900
