15
gdb_10577
C     -0.172800    1.445900   -0.084200
N      0.046300    0.007300    0.006000
C      1.389300   -0.482500   -0.186600
C      0.766800   -0.522800    1.195100
C      1.289700    0.385800    2.188900
C      1.703800    1.137600    3.030800
C      0.259300   -1.771400    1.713900
C     -0.142800   -2.816400    2.149100
H      0.663600    2.049800    0.294500
H     -0.340300    1.693900   -1.136500
H     -1.072600    1.706500    0.479800
H      1.488900   -1.413900   -0.736700
H      2.196000    0.236900   -0.321000
H      2.076200    1.793900    3.778100
H     -0.508300   -3.736200    2.533600
