10
gdb_504
O     -0.096000    0.098500    0.251100
C      0.179900    1.117000   -0.320600
C      1.322600    2.026100    0.117600
O      1.258000    3.261200   -0.582600
C      2.306200    3.614400   -1.362200
O      2.326400    4.626000   -1.989500
H     -0.369200    1.479000   -1.217200
H      1.245100    2.216600    1.192500
H      2.275000    1.508900   -0.066600
H      3.122400    2.865300   -1.341800
