19
gdb_12890
C     -0.275100    1.490700   -0.002500
N      0.041400    0.068200    0.077600
C      1.339900   -0.469100   -0.305000
C      2.538300    0.457200   -0.352800
O      2.537600    1.179700    0.876400
C      1.829400    0.433100    1.860800
C      0.884600   -0.505700    1.121300
C      0.363600   -1.721000    1.848300
H      0.542900    2.167600    0.272000
H     -0.587500    1.716800   -1.027200
H     -1.130100    1.690300    0.651600
H      1.333300   -1.339400   -0.957400
H      3.458600   -0.137700   -0.471100
H      2.505300    1.194000   -1.163900
H      2.517800   -0.159600    2.485000
H      1.318300    1.151600    2.513200
H     -0.254100   -1.431200    2.706600
H     -0.256700   -2.321500    1.179500
H      1.184600   -2.342200    2.223100
