10
gdb_2560
C      0.021200   -1.175400   -0.029300
C      0.004700    0.024000    0.016200
C     -0.032600    1.462400    0.070500
C      0.538500    2.197300    1.231200
O      1.223500    2.155300   -0.008500
C     -1.117900    2.090300   -0.667400
N     -1.988600    2.585600   -1.242400
H      0.039200   -2.237100   -0.073700
H      0.106100    3.157700    1.504100
H      0.974000    1.609400    2.036000
