9
gdb_3818
N      0.021500   -1.155600   -0.003900
C     -0.003100    0.001500    0.002800
C     -0.017700    1.415700    0.010800
C     -1.096200    2.254900    0.029700
O     -0.694000    3.521300    0.031200
N      0.702500    3.565800    0.013000
C      1.090500    2.320300    0.001300
H     -2.160600    2.080200    0.042800
H      2.144300    2.084300   -0.013900
