18
gdb_14766
O     -0.071700    1.452500   -0.127900
C      0.003800    0.045700   -0.016500
C     -1.380400   -0.581300    0.039300
O     -2.038900   -0.222400   -1.163500
C     -3.392500   -0.615900   -1.214000
C     -3.962800   -0.148100   -2.557400
C     -5.364100   -0.511300   -2.715700
C     -6.519800   -0.823800   -2.819000
H     -0.688900    1.623200   -0.849000
H      0.563200   -0.396900   -0.856200
H      0.548300   -0.179600    0.906300
H     -1.312000   -1.677000    0.137200
H     -1.935800   -0.191100    0.906800
H     -3.484200   -1.709400   -1.126300
H     -3.961700   -0.169100   -0.384200
H     -3.841300    0.939300   -2.631200
H     -3.362000   -0.584800   -3.364000
H     -7.541400   -1.093500   -2.923700
