13
gdb_153
O     -0.044600    1.308400   -0.447500
C     -0.006000   -0.000200    0.107100
C     -1.396800   -0.572300    0.081200
C     -1.922200   -1.211100   -1.177300
C     -1.588200   -2.066800    0.019000
H      0.823600    1.706000   -0.333000
H      0.668500   -0.657600   -0.467600
H      0.369000    0.022900    1.143400
H     -2.113300   -0.012500    0.675500
H     -2.965700   -1.063400   -1.431300
H     -1.258100   -1.253000   -2.034200
H     -0.702400   -2.691600   -0.034300
H     -2.401200   -2.502900    0.588400
