16
gdb_21187
C     -0.036000    1.425100    0.000700
N     -0.155300   -0.021500    0.067900
C      0.589500   -0.673700    1.045600
C      1.262600   -0.178700    2.121500
O      1.781900   -1.194600    2.849300
N      1.463000   -2.393100    2.238800
C      0.754500   -2.091900    1.176800
C      0.222700   -3.155500    0.273600
H      1.002100    1.775400   -0.121100
H     -0.632600    1.798600   -0.834400
H     -0.434100    1.866400    0.921100
H     -0.082800   -0.465400   -0.837200
H      1.444500    0.814000    2.497700
H     -0.866300   -3.080500    0.181200
H      0.643900   -3.071200   -0.735600
H      0.476200   -4.141300    0.667600
