17
gdb_19842
C      0.070400    1.586900   -0.179400
C      1.307400    0.746500    0.020300
O      2.048600    0.782000    1.204700
C      1.268800    0.876600    2.392800
C      0.219800   -0.220000    2.467200
C     -1.224700    0.100800    2.259500
N     -0.467800   -0.579100    1.220800
C     -0.040400    0.074400    0.008800
H     -0.258500    2.243300    0.616600
H     -0.121600    1.977200   -1.172900
H      1.983100    0.598400   -0.814300
H      1.981900    0.776700    3.214100
H      0.817100    1.876100    2.469200
H      0.488600   -1.079500    3.077200
H     -1.995700   -0.499000    2.735800
H     -1.488900    1.147500    2.119200
H     -0.314000   -0.496000   -0.873600
