14
gdb_20341
C     -0.068100    1.508400    0.010800
C      1.406800    1.905100   -0.001000
C      2.209200    0.822000   -0.014600
C      1.381300   -0.383800   -0.013600
C      0.057600    0.015700    0.001200
N     -0.693100   -1.102100    0.002200
N      0.068900   -2.228000   -0.011300
C      1.331800   -1.793100   -0.020900
H     -0.586200    1.894600    0.898200
H     -0.602900    1.904400   -0.862300
H      1.725400    2.939100    0.001700
H      3.291300    0.840000   -0.024800
H     -1.693600   -1.202100    0.011100
H      2.134200   -2.515900   -0.032600
