15
gdb_1780
C     -0.013100    1.376900   -0.270800
C      0.343600   -0.075600   -0.086600
O      1.709600   -0.417600    0.110600
C      0.798100   -0.666100    1.201200
C      0.978900    0.109600    2.479700
C      0.505700   -2.131000    1.354100
O      0.183900   -2.656600    2.388500
H      0.538000    2.024100    0.412900
H      0.222000    1.686600   -1.294300
H     -1.086200    1.526500   -0.113500
H     -0.174300   -0.750500   -0.773500
H      1.150700    1.169200    2.291100
H      0.094400   -0.007300    3.111500
H      1.833400   -0.285300    3.037000
H      0.620900   -2.701900    0.405400
