16
gdb_19455
C     -0.082600   -1.214400   -0.093600
C     -0.042100   -0.013300   -0.034700
C     -0.002500    1.430100    0.015400
C     -0.023200    2.083600    1.454400
C      1.497100    1.742000    1.535700
C      1.412900    2.111600    0.038000
O      1.085300    3.503500    0.043300
C      0.052300    3.560600    1.058800
H     -0.120100   -2.274200   -0.147100
H     -0.691900    1.868800   -0.712700
H     -0.745100    1.785100    2.212200
H      2.133200    2.368500    2.164800
H      1.680700    0.682800    1.710600
H      2.185400    1.907500   -0.700500
H     -0.875000    3.951800    0.625100
H      0.367700    4.213700    1.880800
