17
gdb_17527
O      0.502300    0.376900   -0.903700
C     -0.139900    0.332300    0.363400
C     -1.443700   -0.390700    0.202800
C     -2.356400   -0.691100    1.424600
C     -2.897700   -1.851800    0.591900
C     -1.691000   -1.884600   -0.265800
N     -2.982700   -1.443500   -0.856900
C     -2.478000   -0.030700   -0.880500
H      1.338100    0.841300   -0.802400
H      0.484600   -0.186300    1.109000
H     -0.334400    1.347000    0.751700
H     -1.786500   -1.065000    2.280300
H     -3.040200    0.101000    1.750200
H     -3.549300   -2.660000    0.896500
H     -1.068600   -2.674500   -0.663900
H     -3.223800    0.740900   -0.651200
H     -2.022600    0.158800   -1.853800
