22
gdb_6370
C     -0.081200    1.595200   -0.076900
C     -0.131700    0.096000    0.206100
C      0.754100   -0.339300    1.367800
O      1.320600    0.465800    2.073200
C      0.898500   -1.844000    1.572700
C      1.525600   -2.257600    2.911200
C      0.579100   -1.971000    4.085100
C      1.941500   -3.733600    2.882500
H      0.929800    1.907500   -0.352500
H     -0.758400    1.859000   -0.894100
H     -0.365100    2.166400    0.810100
H     -1.156100   -0.224200    0.445800
H      0.146000   -0.491600   -0.679500
H     -0.081400   -2.321400    1.431000
H      1.515100   -2.207200    0.736300
H      2.422700   -1.642400    3.047500
H     -0.347300   -2.552200    3.993600
H      1.045100   -2.243100    5.037800
H      0.317400   -0.911000    4.131400
H      2.653800   -3.935300    2.075000
H      2.413600   -4.026200    3.826100
H      1.073700   -4.387300    2.731300
