18
gdb_18404
C     -0.042000    1.494800    0.068800
C      1.315300    0.811600    0.034900
C      2.166400    0.760600    1.289400
O      2.683200   -0.537400    1.554400
C      1.777900   -1.384200    2.234600
C      0.548900   -1.801600    1.426400
O     -0.322300   -0.707900    1.152800
C      0.044100    0.003300    0.008100
H     -0.354100    1.921600    1.016000
H     -0.383900    2.033700   -0.807500
H      1.872200    0.859600   -0.896300
H      3.036900    1.415100    1.177700
H      1.590200    1.115700    2.156000
H      2.345000   -2.282600    2.505600
H      1.434400   -0.903400    3.165700
H      0.858100   -2.292100    0.492600
H     -0.030300   -2.521500    2.017000
H     -0.221400   -0.493600   -0.925700
