15
gdb_16924
N     -0.052100    1.265800    0.007300
C     -0.022900    0.007200   -0.016600
O      1.111000   -0.780900   -0.051600
C      0.626000   -2.143500   -0.015700
C     -0.625700   -2.070900   -0.892800
C     -1.193700   -0.953900    0.014500
C     -1.096400   -1.674000    1.382200
O      0.138900   -2.420800    1.273700
H      0.896000    1.647500   -0.001700
H      1.447600   -2.813300   -0.256100
H     -0.421600   -1.751100   -1.915400
H     -1.206200   -2.995100   -0.882500
H     -2.155300   -0.505800   -0.218400
H     -1.033600   -0.984500    2.228400
H     -1.931000   -2.367400    1.538400
