16
gdb_19456
C     -0.104800   -1.305900   -0.133400
C     -0.060000   -0.105600   -0.064200
C      0.002700    1.335800    0.027300
C     -0.041600    2.083900    1.397300
C      1.059800    1.409500    2.236900
C      2.180300    1.429900    1.147300
C      1.359100    2.109500    0.035200
O      0.678100    3.179000    0.756500
H     -0.150000   -2.364900   -0.199500
H     -0.683900    1.821000   -0.669500
H     -0.978100    2.377300    1.870300
H      1.307300    2.011400    3.113100
H      0.787800    0.402100    2.559100
H      3.037900    2.042900    1.430200
H      2.528700    0.433800    0.866100
H      1.852300    2.429000   -0.882100
