19
gdb_11749
C     -0.306400    1.491700    0.083600
C      0.121300    0.026500   -0.074300
C      0.900400   -0.475300    1.107400
C      2.347700   -0.097500    1.474200
C      2.538400   -1.556800    2.023600
O      2.791100   -1.721500    3.403800
C      1.089400   -1.867200    1.653200
N      0.182900   -0.921100    2.297700
H      0.561800    2.151400    0.189700
H     -0.877800    1.831200   -0.785500
H     -0.933100    1.615300    0.972200
H     -0.764400   -0.606100   -0.197400
H      0.728100   -0.088600   -0.981700
H      2.987300    0.111100    0.612000
H      2.457200    0.708800    2.207600
H      3.254100   -2.124600    1.414300
H      3.677800   -1.396500    3.590100
H      0.695600   -2.822400    1.324200
H      0.577500   -0.567600    3.167900
