17
gdb_2088
C     -0.018600    1.530500    0.048900
C     -0.003400    0.029500   -0.021400
C     -0.052900   -0.648800   -1.168700
C      0.009200   -2.150500   -1.236100
O      0.369800   -2.756900   -0.010400
C     -0.316800   -2.189600    1.090600
C      0.074100   -0.723800    1.287700
H      0.875000    1.909700    0.562100
H     -0.055100    1.982500   -0.946100
H     -0.881600    1.892900    0.622500
H     -0.139000   -0.127800   -2.119800
H     -0.959200   -2.550400   -1.593500
H      0.765400   -2.468600   -1.964400
H     -1.407300   -2.265800    0.942200
H     -0.053000   -2.795400    1.962200
H      1.089800   -0.654900    1.702000
H     -0.590600   -0.261800    2.030300
