18
gdb_18481
C     -0.471300    1.041500    0.192500
O      0.597900    0.154100   -0.087700
C      0.995700   -0.574800    1.024800
C      0.155800   -1.642800    1.654400
O     -0.665700   -2.295400    0.692700
C      0.516600   -2.817700    0.008400
C      0.499400   -2.636500   -1.494600
C      1.448100   -2.002900    0.913800
H     -0.196300    1.773200    0.966900
H     -0.693100    1.575600   -0.734100
H     -1.364400    0.494700    0.520200
H      1.575400   -0.003300    1.755700
H     -0.138200   -1.697000    2.697300
H      0.605200   -3.882200    0.264000
H      0.429600   -1.581700   -1.757900
H      1.415800   -3.053500   -1.926900
H     -0.350300   -3.176100   -1.926100
H      2.410500   -2.341600    1.274600
