17
gdb_15550
C     -0.663900    1.330700   -0.020800
C      0.092700    0.006000   -0.051200
C      1.263800   -0.060900   -1.064300
C      2.225300   -1.030800   -0.425700
C      1.943800   -1.255200    0.854900
C      0.729000   -0.456400    1.308400
C      1.133000    0.651700    2.183700
N      1.457500    1.522900    2.871500
H     -0.006700    2.159200    0.260000
H     -1.084600    1.550300   -1.007200
H     -1.491100    1.304300    0.695700
H     -0.607600   -0.794000   -0.316700
H      0.925400   -0.378200   -2.056700
H      1.739200    0.921600   -1.197900
H      3.064800   -1.463400   -0.958400
H      2.508100   -1.875200    1.540400
H      0.018000   -1.065200    1.879100
