22
gdb_14873
C      0.062400    1.536000   -0.298500
C      0.019800    0.006900   -0.221000
C     -1.362400   -0.524300    0.166300
C     -2.409600   -0.517800   -0.991000
C     -2.126800   -2.027200   -1.231200
C     -1.481700   -2.071800    0.182300
O     -0.272200   -2.757600    0.365700
C     -0.417000   -4.158800    0.357500
H      1.057500    1.890300   -0.585200
H     -0.651100    1.923500   -1.034100
H     -0.185800    1.987300    0.668900
H      0.327300   -0.421700   -1.182800
H      0.752200   -0.349600    0.511300
H     -1.685600   -0.036800    1.092400
H     -3.427100   -0.336800   -0.635200
H     -2.212300    0.159200   -1.825800
H     -2.978100   -2.682000   -1.431100
H     -1.369600   -2.182200   -2.004900
H     -2.219000   -2.403200    0.932100
H     -1.098900   -4.501000    1.152500
H     -0.800900   -4.529400   -0.604900
H      0.571700   -4.591100    0.530500
