13
gdb_1397
C      0.027100    1.577000    0.005900
C      0.004900    0.038100   -0.024700
C     -1.438000   -0.541100    0.025300
C     -2.127800   -0.170100    1.258000
N     -2.655400    0.132600    2.240200
C      0.679400   -0.475600   -1.220800
N      1.199200   -0.878100   -2.170900
H      1.054900    1.945600   -0.007300
H     -0.496700    1.990400   -0.860600
H     -0.461800    1.934900    0.915200
H      0.550400   -0.343200    0.846400
H     -2.013200   -0.175500   -0.832000
H     -1.407100   -1.632500   -0.050000
