18
gdb_17000
C      0.050500    1.410300   -0.013500
C      1.375200    0.702000   -0.028800
C      1.742500    0.136000    1.357000
C      0.402700   -0.672900    1.365400
C      0.060100   -0.091900   -0.020500
C      0.000500   -0.789100   -1.357800
O      0.938100   -0.082800   -2.186900
C      2.007400    0.422500   -1.370500
H     -0.262300    1.937800    0.883000
H     -0.240500    1.882300   -0.945700
H      2.622500   -0.511200    1.328300
H      1.883700    0.874700    2.151700
H      0.565400   -1.753200    1.341200
H     -0.309400   -0.449400    2.165600
H      0.285100   -1.848000   -1.242700
H     -0.960200   -0.745500   -1.881200
H      2.411500    1.290000   -1.902600
H      2.813000   -0.322000   -1.258700
