18
gdb_2693
C     -0.036700    1.577600   -0.019400
C     -0.000000    0.047300    0.000100
C      0.730500   -0.520500    1.221900
C      0.767000   -2.051000    1.240700
C      1.506200   -2.599400    2.477800
C      1.549700   -4.059600    2.509900
N      1.574000   -5.214900    2.518500
H      0.974700    1.998500   -0.033200
H     -0.564200    1.951200   -0.902200
H     -0.547100    1.973400    0.865600
H     -1.025000   -0.345400   -0.022200
H      0.485000   -0.320500   -0.913600
H      1.757700   -0.130100    1.245900
H      0.245900   -0.155200    2.138200
H     -0.253000   -2.451800    1.228400
H      1.258900   -2.426800    0.336200
H      2.535400   -2.221600    2.503200
H      1.021900   -2.246900    3.396300
