14
gdb_10902
C     -0.051100    1.562600    0.096600
C      0.158200    0.091300   -0.019800
O     -0.776600   -0.817000    0.620100
C      0.603900   -0.961200    0.938400
C      1.227700   -1.829800   -0.153400
O      0.804800   -3.160600   -0.203200
C      0.677200   -0.769100   -1.171700
O      0.731400   -0.663900   -2.360900
H      0.856400    2.103900   -0.187300
H     -0.858400    1.886000   -0.567900
H     -0.319300    1.830700    1.121700
H      0.904800   -0.842000    1.972100
H      2.328900   -1.735200   -0.145500
H      0.914500   -3.472000   -1.108500
