13
gdb_21078
C      0.011500    1.406300    0.004500
N     -0.003700   -0.044800    0.029100
N      0.074200   -0.737200   -1.110200
C      0.093000   -2.022300   -0.748200
C      0.031300   -2.170100    0.644200
C     -0.028600   -0.868100    1.122300
C     -0.110000   -0.374000    2.444500
N     -0.178200    0.046000    3.522100
H      1.032100    1.779100   -0.122700
H     -0.601500    1.745000   -0.831100
H     -0.396100    1.784500    0.942600
H      0.144600   -2.790600   -1.504700
H      0.021100   -3.072500    1.232200
