16
gdb_12359
C     -0.215500    1.512000    0.072200
C      0.053100    0.005200   -0.039100
O      0.761000   -0.353100   -1.223700
C      2.125700   -0.001200   -1.251700
C      2.860100   -0.357700    0.004500
C      2.216700   -0.642100    1.142200
C      0.751500   -0.505400    1.226200
O      0.125700   -0.709000    2.246800
H      0.711500    2.081800    0.194900
H     -0.726600    1.866500   -0.826800
H     -0.847900    1.705900    0.942300
H     -0.901500   -0.523000   -0.114200
H      2.558400   -0.539400   -2.103400
H      2.269700    1.074900   -1.463400
H      3.946600   -0.368200   -0.048200
H      2.731800   -0.924700    2.054700
