15
gdb_9221
C      0.316700    1.315300    0.177700
O     -0.077500   -0.028900   -0.115300
C      0.552300   -0.583400   -1.176800
O      1.384100   -0.026500   -1.857500
N      0.110000   -1.863200   -1.358100
C      0.560400   -2.675500   -2.461600
C      1.377700   -3.878100   -2.008000
O      1.395200   -4.934200   -2.580900
H      1.383000    1.364900    0.412200
H      0.111500    1.973700   -0.669900
H     -0.276400    1.613300    1.042600
H     -0.625700   -2.190300   -0.753800
H     -0.265300   -3.022000   -3.092300
H      1.213100   -2.039200   -3.072100
H      1.975700   -3.691000   -1.086500
