12
gdb_2566
O     -0.181700    0.332400    0.742800
C      0.123100    1.081000   -0.153500
C      1.352400    1.945300   -0.100500
C      1.519300    2.700900    1.203000
N      2.361200    1.559800    0.915400
C      1.806500    2.494400   -1.347100
C      2.129500    2.944000   -2.413800
H     -0.482700    1.177900   -1.075400
H      2.008100    3.669000    1.156300
H      0.715400    2.599000    1.927000
H      1.979900    0.740800    1.393200
H      2.436800    3.341800   -3.349400
