16
gdb_10142
C     -0.038300    1.384100    0.019500
O      0.035700   -0.022800    0.010800
C      0.625100   -0.532600   -1.156300
C      0.562600   -2.075900   -1.080100
C     -0.819500   -2.564400   -1.095000
C     -1.951700   -2.962800   -1.115200
C      1.357800   -2.666900   -2.160300
C      2.024600   -3.121100   -3.049700
H      0.959600    1.846100   -0.042900
H     -0.646700    1.764400   -0.815400
H     -0.506000    1.678300    0.961700
H      0.097800   -0.187900   -2.059000
H      1.679500   -0.225000   -1.239900
H      1.016200   -2.351800   -0.117600
H     -2.952500   -3.317300   -1.128100
H      2.607300   -3.537600   -3.833700
