18
gdb_8670
C      0.010200    1.592600   -0.013700
C      0.003200    0.051600   -0.013200
C      0.707300   -0.455100    1.271200
O      0.546500   -1.848000    1.474900
C     -1.462800   -0.482700   -0.040400
O     -2.140800   -0.253500    1.178600
C      0.705800   -0.487400   -1.178300
C      1.277000   -0.982700   -2.115000
H      1.019600    1.986200    0.139000
H     -0.363400    1.980800   -0.964800
H     -0.637000    1.955900    0.789500
H      1.767400   -0.167700    1.240400
H      0.248400    0.032500    2.135400
H      0.936900   -2.295300    0.714400
H     -2.018700    0.045700   -0.821300
H     -1.452700   -1.547800   -0.296600
H     -1.845600   -0.936700    1.790700
H      1.779200   -1.394500   -2.955400
