15
gdb_19343
O     -0.128500    0.021000   -0.003300
C      0.002200    1.225700   -0.032200
C      1.280500    1.918500    0.041100
C      1.423100    3.394100    0.374500
C      1.785500    2.973900   -1.001200
C      3.121300    2.187200   -1.072600
N      3.727000    2.148000    0.282000
C      2.647700    1.200100   -0.083300
H     -0.878000    1.902300   -0.137300
H      0.478500    3.922500    0.462100
H      2.191800    3.682300    1.079900
H      1.238700    3.289200   -1.880000
H      3.714100    2.052900   -1.967000
H      4.609000    1.643700    0.200400
H      2.770600    0.127400   -0.040900
