14
gdb_23657
N     -0.012200    1.408500    0.159900
C      0.004400    0.018900    0.056000
C     -1.193300   -0.712300    0.037400
C     -1.166000   -2.100400   -0.006000
C      0.038300   -2.801000   -0.033600
C      1.210800   -2.059600   -0.016100
F      2.386200   -2.701200   -0.044800
C      1.221500   -0.675000    0.027000
H      0.813700    1.875400   -0.184000
H     -0.856900    1.850500   -0.171300
H     -2.141500   -0.184700    0.061400
H     -2.101700   -2.649500   -0.021100
H      0.080100   -3.881900   -0.069000
H      2.170200   -0.150200    0.042100
