16
gdb_2383
C     -0.665700    1.144000    0.188600
N      0.067500   -0.116600    0.089300
C      1.410600   -0.093900   -0.430300
C      1.177500   -0.411800    1.019900
C      1.645700    0.575500    2.049200
C      1.937400   -0.002900    3.420900
O      1.777300    1.758800    1.810300
H     -0.043100    2.009900    0.437900
H     -1.153700    1.315500   -0.775800
H     -1.446700    1.038800    0.948100
H      1.681100   -0.899600   -1.108400
H      1.871600    0.872400   -0.628500
H      1.195900   -1.451100    1.339300
H      2.684100   -0.802100    3.346300
H      2.299700    0.781100    4.086200
H      1.031600   -0.456700    3.840000
