14
gdb_4864
C     -0.024100    1.305200   -0.053000
O      0.112800   -0.118400    0.018400
C      0.695200   -0.561800    1.123000
N      1.150200    0.112400    2.131400
C      1.642900   -0.882700    2.977300
C      1.458400   -2.103500    2.433200
N      1.756200   -3.393000    2.846200
O      0.823800   -1.893600    1.190900
H      0.956400    1.787600   -0.014700
H     -0.513600    1.505100   -1.006100
H     -0.632000    1.674500    0.777400
H      2.099400   -0.649700    3.925900
H      2.401100   -3.869500    2.223800
H      0.931300   -3.974100    2.956700
