15
gdb_5501
C     -0.027900    1.502500    0.043200
C     -0.008600    0.003000    0.028900
C     -0.026800   -0.796900   -1.084900
N      0.000900   -2.116200   -0.673800
C      0.036200   -2.180400    0.679200
C      0.031700   -0.881000    1.164600
C      0.063000   -0.528300    2.576500
O      0.096500   -1.324900    3.493500
H      0.857800    1.917900    0.536900
H     -0.053600    1.899500   -0.975600
H     -0.903400    1.894900    0.572400
H     -0.056700   -0.543400   -2.132800
H     -0.004300   -2.911100   -1.289800
H      0.062000   -3.115600    1.213900
H      0.054200    0.565900    2.782400
