20
gdb_17398
C     -0.118000    1.498700   -0.000100
C     -0.008900   -0.009500    0.045800
C      1.331600   -0.685200   -0.167800
C      0.683300   -0.706200    1.185100
C      1.277000   -0.110300    2.483500
C      0.804400   -1.369500    3.227900
C     -0.678600   -1.557600    3.065900
C      0.230700   -1.947700    1.930600
H      0.766900    1.972700    0.437500
H     -0.209200    1.859800   -1.030800
H     -0.992400    1.855700    0.556100
H     -0.867500   -0.536100   -0.366200
H      1.362700   -1.608400   -0.738600
H      2.201800   -0.048900   -0.306000
H      2.366000   -0.022300    2.440200
H      0.860500    0.839700    2.837600
H      1.361700   -1.877800    4.004800
H     -1.104700   -2.384100    3.626400
H     -1.337300   -0.697300    2.968800
H      0.282000   -2.961900    1.551600
