20
gdb_9856
C      0.108900    1.453800   -0.311300
C      0.043000    0.018500   -0.073500
C     -0.001100   -1.169000    0.122800
C     -0.075700   -2.610300    0.355800
C     -1.463400   -3.203400    0.103600
C     -2.554500   -2.674100    1.012200
C     -1.817000   -3.556900   -1.318200
C     -1.517600   -4.651400   -0.317700
H      1.042100    1.732200   -0.813900
H     -0.719100    1.791800   -0.944400
H      0.058600    2.018300    0.626600
H      0.655100   -3.120800   -0.284700
H      0.226100   -2.829200    1.390100
H     -2.652200   -1.588200    0.912200
H     -3.521600   -3.126300    0.771900
H     -2.334700   -2.895000    2.063800
H     -2.845200   -3.423800   -1.637800
H     -1.084600   -3.358800   -2.093700
H     -0.583800   -5.195100   -0.420300
H     -2.343300   -5.256400    0.041800
