19
gdb_6707
C      0.063400    1.503600    0.103700
C     -0.031300   -0.020600   -0.001000
C     -1.467300   -0.497800   -0.182800
O      0.700300   -0.524500   -1.120300
C      2.098100   -0.511400   -0.983100
C      2.658600   -1.287500   -2.183300
C      4.116700   -1.341300   -2.171600
N      5.271400   -1.373700   -2.144500
H      1.093100    1.841300    0.251500
H     -0.325500    1.970700   -0.806900
H     -0.525200    1.861800    0.954000
H      0.385000   -0.469300    0.916700
H     -1.893700   -0.077100   -1.098900
H     -1.501900   -1.587700   -0.257700
H     -2.086900   -0.184800    0.662400
H      2.508400    0.508800   -0.982000
H      2.411100   -0.994700   -0.044100
H      2.255300   -2.305200   -2.177700
H      2.319600   -0.811900   -3.109500
