13
gdb_1214
N     -0.053900    1.345500    0.009300
C      0.066700   -0.010800    0.000300
O      1.141700   -0.578100   -0.014400
C     -1.262300   -0.768400    0.010200
C     -1.019300   -2.285200   -0.001100
C     -2.270000   -3.038900    0.007900
N     -3.268600   -3.620400    0.015300
H      0.785400    1.901300    0.003700
H     -0.944300    1.810900    0.021600
H     -1.840800   -0.481200    0.895400
H     -1.859500   -0.471200   -0.859200
H     -0.433600   -2.562100   -0.882300
H     -0.414900   -2.572100    0.864200
