12
gdb_5457
C     -0.004900    1.525100    0.130300
C      0.015600    0.042400    0.013900
C     -0.004000   -0.740400   -1.107200
O      0.028500   -2.058700   -0.712600
C      0.065900   -1.990300    0.629500
N      0.060700   -0.792400    1.120000
C     -0.048200   -0.442300   -2.482200
N     -0.084900   -0.159600   -3.605500
H      0.886600    1.878400    0.658100
H     -0.041200    1.996800   -0.853800
H     -0.874900    1.850000    0.709500
H      0.096200   -2.929400    1.160300
