13
gdb_20338
C     -0.037900    1.393000   -0.168800
C      1.323600    0.807000    0.087400
C      0.093200   -0.105200    0.094900
C      0.671100   -0.697500   -1.173300
N      0.446700   -1.118000   -2.398500
C      1.516300   -0.539200   -3.056400
N      2.306500    0.260200   -2.343600
N      1.790800    0.056400   -1.096800
H     -0.458300    1.981500    0.642700
H     -0.293800    1.741800   -1.163600
H      1.996600    1.079700    0.887900
H     -0.363600   -0.609900    0.933000
H      1.717000   -0.734300   -4.100600
