20
gdb_16241
C     -0.527900    1.389600    0.002900
C      0.090600   -0.006200   -0.028200
C      1.110200   -0.234900   -1.162600
C      1.917800   -1.457700   -0.696000
C      2.116900   -1.192700    0.807500
C      0.852500   -0.440400    1.237700
C      0.750300    0.218100    2.545900
O      0.065000   -1.011000    2.292000
H      0.235800    2.159700    0.159000
H     -1.034300    1.608700   -0.943000
H     -1.271700    1.481700    0.800800
H     -0.717600   -0.740900   -0.148000
H      0.629200   -0.375700   -2.134900
H      1.770600    0.638700   -1.249900
H      1.327300   -2.369500   -0.844300
H      2.859000   -1.586800   -1.236800
H      2.254800   -2.095400    1.407600
H      2.996000   -0.555100    0.960700
H      1.586300    0.152100    3.243300
H      0.113700    1.091000    2.679400
