14
gdb_20230
C     -0.017500    1.635900   -0.099300
N      1.286100    1.970600    0.568800
C      1.900800    0.865500    0.434400
C      1.427000   -0.244600   -0.539200
C      1.740000   -1.216100    0.620400
C      0.592000   -0.595300    1.336900
C      0.007300    0.066100    0.017700
N      2.068900   -0.093100    1.528400
H     -0.803400    2.140900    0.470400
H     -0.120200    1.933300   -1.154000
H      1.666600   -0.312200   -1.595600
H      2.196500   -2.193600    0.682600
H      0.077300   -0.880300    2.245000
H     -0.848700   -0.492400   -0.371100
