14
gdb_16616
C      0.038800    1.504400    0.033800
C     -0.026900    0.016100   -0.041800
C     -0.109600   -0.786600   -1.114700
C     -0.048600   -2.234100   -0.719600
O      1.194500   -2.580400   -0.074000
C      0.045700   -2.280700    0.740300
C      0.021800   -0.826100    1.201900
O      0.006100   -0.427000    2.340600
H      0.998700    1.826000    0.453900
H     -0.081900    1.965400   -0.949400
H     -0.735300    1.889300    0.705800
H     -0.156800   -0.459300   -2.147000
H     -0.504500   -3.017400   -1.315900
H     -0.326600   -3.077400    1.375700
