13
gdb_21774
O     -0.274800   -0.123000    0.074200
C     -0.142900    1.075800    0.158800
N     -1.076100    2.090700   -0.067800
N     -0.626500    3.402300    0.112500
C      0.600100    3.183100    0.453800
C      1.970600    3.682300    0.866400
C      2.350200    2.144100    0.914800
N      0.957200    1.873600    0.503700
H     -2.027800    1.928800   -0.346400
H      2.507000    4.263300    0.114600
H      2.015900    4.196400    1.827800
H      3.093200    1.820800    0.183300
H      2.598500    1.753200    1.903300
