19
gdb_7372
C      0.443200    1.003400    0.667300
C     -0.120600   -0.226500   -0.024000
O      0.826100   -0.677300   -0.978100
C      0.488600   -1.888000   -1.641600
C     -0.538400   -1.694200   -2.758700
C      1.770000   -2.530800   -2.204000
N      2.921900   -1.931700   -1.817500
O      1.712800   -3.515400   -2.917000
H      1.380300    0.764000    1.178600
H      0.640500    1.796000   -0.060100
H     -0.267600    1.382100    1.407600
H     -0.322400   -1.025900    0.707600
H     -1.075500    0.016200   -0.512900
H      0.093400   -2.608800   -0.906800
H     -0.197600   -0.919200   -3.451900
H     -0.646500   -2.632200   -3.306100
H     -1.513200   -1.401900   -2.359500
H      2.882600   -1.085500   -1.275900
H      3.794500   -2.281700   -2.174800
