14
gdb_2095
O     -0.061200    1.429700    0.044300
C      0.024400    0.015500    0.003300
C      0.745500   -0.525300    1.239300
O      0.708900   -1.957600    1.277700
C     -0.454200   -2.516600    0.854400
N     -1.450400   -1.976700    0.296600
C     -1.394000   -0.549300   -0.007800
H      0.804100    1.796900   -0.162900
H      0.556600   -0.327300   -0.896800
H      1.803300   -0.247300    1.252800
H      0.266700   -0.121700    2.140500
H     -0.440300   -3.585500    1.058400
H     -1.999600    0.004200    0.721400
H     -1.860500   -0.385300   -0.984400
