18
gdb_10405
C      0.187500    1.504500   -0.123000
C      0.009500   -0.000400    0.087900
C      0.667300   -0.508900    1.374700
C      0.871400   -2.051500    1.470700
C      2.373500   -1.718200    1.476400
O      2.113500   -0.305800    1.335200
C      0.076100    0.093100    2.568200
C     -0.421100    0.570100    3.553700
H      1.250000    1.763100   -0.129400
H     -0.248100    1.816700   -1.076500
H     -0.296300    2.073600    0.676000
H     -1.054500   -0.266000    0.117200
H      0.459100   -0.551800   -0.746100
H      0.481100   -2.514700    2.376100
H      0.513900   -2.595800    0.595000
H      2.898000   -1.942400    2.412800
H      2.960600   -2.109700    0.637900
H     -0.852100    0.997600    4.425300
