16
gdb_19408
O      0.243000    1.390000   -0.174600
C      0.009900    0.016000   -0.001300
C      0.307100   -0.663200    1.344500
C     -0.700700   -0.266800    2.390500
C     -1.099000   -1.285300    1.357900
C     -1.431500   -0.544400    0.079100
C     -2.691600    0.007400   -0.418500
O     -2.064100   -1.131400   -1.037400
H     -0.094600    1.851300    0.600600
H      0.531400   -0.486800   -0.821100
H      1.250200   -1.121500    1.613600
H     -0.504900   -0.651200    3.386100
H     -1.166500    0.717300    2.390100
H     -1.396000   -2.297700    1.596800
H     -3.622200   -0.202800    0.107100
H     -2.679600    0.919500   -1.013400
