17
gdb_17776
O     -0.121700   -0.076600    0.342400
C     -0.065600    1.108100    0.091400
N      1.071500    1.813200   -0.167400
C      2.381600    1.216000   -0.173500
C      3.398200    1.543900   -1.313100
C      3.610300    2.941500   -0.654000
C      3.581200    1.927000    0.530200
C      4.494400    1.017900   -0.342100
H     -0.963400    1.757100    0.045900
H      0.971100    2.796200   -0.361100
H      2.248300    0.159900    0.059200
H      3.290800    1.319700   -2.375000
H      4.570400    3.425900   -0.850000
H      2.802700    3.675400   -0.726400
H      3.684900    2.144500    1.593900
H      4.486500   -0.052100   -0.118900
H      5.506500    1.387300   -0.519300
