19
gdb_12265
C     -0.119100    1.578200   -0.042100
C      0.069800    0.062600    0.086700
C      0.719000   -0.545600   -1.154700
C      0.768500   -2.100800   -1.272500
N     -0.063500   -1.977000   -2.470500
C     -0.631300   -2.950300   -3.364700
C     -0.169800   -0.609700   -2.423000
O     -0.763200    0.177900   -3.117900
H      0.846100    2.087500   -0.139800
H     -0.713200    1.818000   -0.928000
H     -0.624500    1.987100    0.837900
H      0.685200   -0.168400    0.965500
H     -0.902400   -0.419200    0.254500
H      1.685500   -0.073200   -1.357900
H      1.757700   -2.535700   -1.456500
H      0.282700   -2.638900   -0.449200
H     -1.297100   -3.644700   -2.836900
H     -1.211700   -2.409200   -4.116000
H      0.146000   -3.535200   -3.871900
