15
gdb_3163
O      0.228700    1.124600   -0.569700
C      0.031900   -0.124000    0.044500
C     -0.029500   -0.217200    1.603300
C     -1.284200   -1.133000    1.469900
C     -1.408100   -0.625900    0.031300
C     -2.543500    0.011100   -0.633000
O     -2.045000   -1.273500   -1.047800
H      1.172700    1.268400   -0.684400
H      0.703000   -0.890700   -0.368800
H      0.841200   -0.626800    2.118300
H     -0.279900    0.758900    2.025000
H     -1.031900   -2.196700    1.502100
H     -2.122000   -0.946500    2.144100
H     -3.523200   -0.002000   -0.156800
H     -2.362400    0.826000   -1.330200
