20
gdb_13421
C      0.096100    1.524800   -0.070300
C      0.042700    0.070100   -0.028200
C      0.004700   -1.135000    0.003600
C     -0.020600   -2.568900    0.027300
C     -0.484700   -3.329500    1.272100
C     -0.865500   -2.605100    2.543200
C     -1.345900   -3.335100    0.036000
C     -2.673200   -2.616700   -0.051500
H      1.131000    1.883700   -0.107800
H     -0.422800    1.923100   -0.949900
H     -0.371600    1.967300    0.816500
H      0.785400   -3.036200   -0.532300
H      0.065100   -4.251300    1.446200
H     -1.313700   -1.630400    2.339900
H     -1.578500   -3.193400    3.131500
H      0.018600   -2.432200    3.166100
H     -1.314700   -4.260200   -0.534400
H     -2.639600   -1.635900    0.427100
H     -2.955000   -2.457500   -1.097900
H     -3.468600   -3.202200    0.423000
