17
gdb_20869
C     -0.024700    1.580100   -0.022300
C      0.156300    0.062500   -0.090700
C      0.623700   -0.540800    1.246800
C      0.761700   -2.029500    1.201200
C      1.887300   -2.821000    1.211000
N      1.404800   -4.084200    1.128000
N      0.061500   -4.094900    1.070400
N     -0.327200   -2.854200    1.113800
H      0.913000    2.082300    0.242100
H     -0.358100    1.983600   -0.983300
H     -0.770500    1.856200    0.731400
H     -0.785500   -0.417800   -0.378000
H      0.883000   -0.193300   -0.871900
H      1.582000   -0.095600    1.539000
H     -0.098000   -0.275100    2.028900
H      2.939800   -2.601100    1.271100
H      1.906400   -4.957600    1.114400
