15
gdb_13056
O      0.237300   -0.184800    0.231200
C      0.112500    0.951200   -0.138500
C      1.215900    2.001300   -0.062000
N      1.193800    2.912400   -1.172900
C      1.583100    2.778400   -2.584000
C      1.302500    4.301400   -2.733300
C      0.963600    4.271600   -1.225400
O      0.639300    5.057300   -0.376100
H     -0.841600    1.335100   -0.567100
H      1.040100    2.605600    0.839000
H      2.182600    1.495800    0.047800
H      2.628200    2.482400   -2.724900
H      0.935900    2.116700   -3.168000
H      2.167600    4.917100   -2.984100
H      0.463700    4.566600   -3.378600
