12
gdb_4227
O     -0.080800    1.461200    0.010600
C      0.042800    0.049400    0.002100
C     -1.374400   -0.514800    0.012300
C     -1.402300   -2.026200    0.004300
F     -0.776000   -2.542500    1.076900
F     -2.660100   -2.490500    0.013800
F     -0.796700   -2.530700   -1.085500
H      0.803100    1.840000    0.005600
H      0.573600   -0.307300   -0.892500
H      0.590000   -0.316500    0.883000
H     -1.906600   -0.170700    0.903300
H     -1.923100   -0.161000   -0.864800
