13
gdb_562
C     -0.038800    1.443200   -0.123800
N     -0.043700   -0.003200   -0.289400
C     -1.052300   -0.654400    0.052900
C     -1.439400   -2.118500    0.043600
C     -2.759000   -1.600800    0.650100
O     -2.259300   -0.231700    0.601700
H      0.802800    1.727600    0.517400
H      0.131000    1.914800   -1.098000
H     -0.961400    1.849500    0.306800
H     -1.510600   -2.567000   -0.948700
H     -0.832700   -2.756600    0.688200
H     -3.653600   -1.713000    0.032400
H     -2.971900   -1.903700    1.678400
