15
gdb_18632
O      0.047600    1.395100    0.067600
C     -0.047500    0.010400   -0.008000
C     -1.344900   -0.734600    0.011500
C     -2.586800    0.087500   -0.325300
N     -2.253900    0.690700   -1.613800
C     -1.217300    0.048400   -2.281700
O     -0.974300    0.156200   -3.460700
C     -0.476100   -0.754300   -1.252200
H     -0.598100    1.779400   -0.540000
H      0.775100   -0.440000    0.537400
H     -1.467900   -1.606700    0.642200
H     -3.473200   -0.555600   -0.396900
H     -2.783600    0.856100    0.431800
H     -2.954900    1.156800   -2.170300
H      0.093500   -1.605900   -1.599100
