12
gdb_4244
N     -0.095100    1.317800    0.008400
C      0.030100    0.053800    0.001000
N     -1.142300   -0.727200    0.003100
C     -1.212000   -2.094500   -0.003600
O     -2.227500   -2.748300   -0.001400
N      0.063900   -2.675900   -0.013300
C      1.204800   -1.921500   -0.015600
N      1.247700   -0.640900   -0.009200
H      0.832600    1.738700    0.005600
H     -2.020700   -0.228200    0.010400
H      0.091200   -3.683700   -0.018600
H      2.132500   -2.490400   -0.023500
