13
gdb_1878
C      0.074000    1.554000    0.014200
C      0.100200    0.045800   -0.001900
O      0.777300   -0.426800   -1.147800
C      1.418400   -1.629700   -0.776200
C      1.586100   -1.516300    0.735300
O      2.238100   -2.187300    1.476400
O      0.823700   -0.463000    1.130500
H      1.095300    1.941800    0.008400
H     -0.452200    1.916900   -0.872400
H     -0.445800    1.912600    0.905800
H     -0.915400   -0.380000    0.046700
H      0.817500   -2.520900   -1.015000
H      2.384100   -1.710800   -1.279500
