19
gdb_7142
C      0.476900    1.246700    0.080200
C     -0.457800    0.097900   -0.308300
N     -0.002000   -0.652800   -1.464800
C      0.691000   -1.818400   -1.341800
O      0.890100   -2.418600   -0.307700
O      1.119900   -2.229200   -2.563700
C      1.841200   -3.471800   -2.569300
C      2.241300   -3.760600   -4.003900
H      1.470200    0.864700    0.332800
H      0.584900    1.966300   -0.738700
H      0.083000    1.783700    0.949300
H     -0.536900   -0.619800    0.511100
H     -1.464600    0.480300   -0.512900
H     -0.005000   -0.218500   -2.373300
H      2.713000   -3.384900   -1.913000
H      1.202300   -4.260500   -2.158900
H      1.359800   -3.845500   -4.645900
H      2.878900   -2.964800   -4.399600
H      2.795500   -4.702600   -4.052800
