16
gdb_659
C     -0.021400    1.529500    0.051000
C      1.417300    2.062700   -0.012200
C      2.152000    1.454900   -1.209500
O      2.131600    0.037100   -1.179200
C      0.811500   -0.480800   -1.207200
C     -0.014500   -0.005000   -0.009700
H     -0.528300    1.881500    0.955600
H     -0.591300    1.923100   -0.802500
H      1.430400    3.156200   -0.086900
H      1.954300    1.791600    0.905400
H      1.695700    1.816600   -2.148600
H      3.207400    1.743400   -1.218600
H      0.311400   -0.182300   -2.146300
H      0.912700   -1.570200   -1.214800
H      0.429200   -0.410900    0.907900
H     -1.033600   -0.402000   -0.082600
