15
gdb_14313
N     -0.070500    1.256100    0.205400
C     -0.034000    0.014200   -0.028600
O      1.124600   -0.688500   -0.364200
C      0.759200   -2.032400   -0.617300
C      0.929200   -3.233000    0.389400
C     -0.591300   -3.581700    0.137800
C     -0.692100   -2.140200   -0.303600
C     -1.149700   -0.951100    0.091000
H      0.860400    1.666200    0.121400
H      1.082300   -2.313500   -1.625100
H      1.668300   -3.992800    0.127600
H      1.088900   -2.873900    1.406900
H     -0.708800   -4.306400   -0.672600
H     -1.197300   -3.888700    0.990500
H     -2.079300   -0.684900    0.571800
