14
gdb_21165
C      0.071300    0.990500    0.470600
N     -0.209100   -0.110600   -0.456700
C     -1.381300   -0.865800   -0.221900
C     -1.407100   -2.265000    0.241400
N     -0.158100   -2.784800    0.447600
O     -2.445000   -2.875400    0.438200
N     -3.534300    0.246300   -0.573400
N     -2.555800   -0.297300   -0.394300
H      1.031800    1.442200    0.205800
H     -0.695600    1.779700    0.465900
H      0.144700    0.590700    1.485400
H     -0.120100    0.187200   -1.422100
H      0.642000   -2.284400    0.097100
H     -0.095300   -3.776500    0.604700
