14
gdb_14581
N     -0.044900   -1.119100   -0.003900
C     -0.017900    0.035700    0.001800
C      0.045500    1.493700    0.009000
C      1.492700    1.997100   -0.002100
O      1.425700    3.408500    0.006200
C      2.698300    4.011200   -0.002600
C      2.537500    5.467400    0.007000
N      2.441800    6.617600    0.014300
H     -0.482800    1.887500   -0.865200
H     -0.466000    1.878000    0.897300
H      2.034400    1.622900    0.879800
H      2.017400    1.632500   -0.898000
H      3.291600    3.715200    0.877500
H      3.274800    3.725000   -0.896800
