19
gdb_2947
C     -0.500500    0.957700   -0.072400
O      0.070500   -0.319300    0.066300
C      0.952100   -0.445600    1.177900
C      0.182400   -0.604300    2.521600
C      0.238800   -2.115600    2.878900
C      0.748200   -2.811500    1.602500
C      1.703800   -1.771300    1.001300
H      0.270600    1.737700   -0.181200
H     -1.115500    0.942500   -0.976100
H     -1.142000    1.232700    0.779100
H      1.629900    0.421000    1.192800
H      0.624400    0.011400    3.310500
H     -0.847800   -0.261700    2.391900
H      0.949800   -2.279800    3.696600
H     -0.726200   -2.503000    3.216600
H      1.224600   -3.775200    1.802700
H     -0.079900   -2.985900    0.907300
H      1.957700   -1.943600   -0.047100
H      2.636000   -1.738200    1.578600
