17
gdb_5237
C     -0.700200    1.419300   -0.525300
O     -0.663400    0.018500   -0.664300
C     -0.735100   -0.659100    0.581100
C     -0.784500   -2.126000    0.324900
C     -0.248700   -3.198400    1.003000
C     -0.679400   -4.382600    0.340800
C     -1.458100   -3.995700   -0.725100
N     -1.527900   -2.626300   -0.714500
H     -0.659500    1.849100   -1.529000
H     -1.623800    1.757300   -0.028600
H      0.156800    1.793700    0.056100
H      0.134100   -0.421800    1.214500
H     -1.632300   -0.311700    1.126600
H      0.376000   -3.137700    1.881500
H     -0.440200   -5.398900    0.613900
H     -1.953600   -4.572100   -1.489600
H     -1.941700   -2.043600   -1.421800
