16
gdb_8195
C     -0.058700    1.532800   -0.002700
C      0.072800    0.034200    0.096900
O     -1.076400   -0.698200   -0.276700
C      1.361900   -0.726000   -0.179800
O      2.485400    0.021800    0.298600
C      2.010000   -0.082400    1.672700
C      0.732300   -0.751800    1.210400
O      0.079400   -1.691500    1.966300
H      0.897000    2.014400    0.215800
H     -0.347800    1.821200   -1.020800
H     -0.820300    1.912000    0.685800
H     -1.172600   -0.657900   -1.234400
H      1.511500   -1.441900   -0.981200
H      2.650500   -0.756400    2.252200
H      1.938900    0.890900    2.170500
H     -0.770000   -1.846800    1.531100
