15
gdb_16875
O     -0.090300   -0.054900   -0.349000
C     -0.038500    1.062000    0.082800
C     -1.201800    2.052100    0.018600
N     -1.317300    3.017700    1.111500
C     -0.940500    2.550500    2.453300
C     -0.037700    3.438600    1.675700
C      1.211200    2.884300    1.032200
O      1.096100    1.497200    0.692800
H     -1.114100    2.614300   -0.920300
H     -2.117400    1.460300   -0.049700
H     -1.537800    2.959900    3.262000
H     -0.645600    1.512400    2.584400
H      0.031900    4.494600    1.931800
H      1.450600    3.458600    0.126400
H      2.070800    2.951800    1.704500
