16
gdb_20949
C     -0.037900    1.498400    0.010200
C     -0.003000   -0.018100    0.002500
O     -1.351600   -0.486400    0.012000
C     -1.548400   -1.816500    0.005800
C     -2.747400   -2.500800    0.010400
C     -2.363300   -3.858500    0.000300
N     -1.046200   -4.023500   -0.009900
N     -0.561000   -2.751100   -0.006100
H      0.981000    1.896100    0.003500
H     -0.565000    1.874200   -0.870500
H     -0.549800    1.865400    0.903500
H      0.511000   -0.392800   -0.894700
H      0.526600   -0.401400    0.886900
H     -3.733700   -2.069800    0.019600
H     -3.005800   -4.727400    0.000100
H      0.432900   -2.610100   -0.012600
