18
gdb_8213
O     -0.226000    1.359300    0.197400
C     -0.054700   -0.007900   -0.052200
C     -0.287600   -0.994300    1.077700
C     -1.307500   -0.839600   -0.041400
O     -2.536400   -0.252600    0.240000
C     -1.247300   -1.813300   -1.202400
C      0.249900   -1.839400   -1.602200
C      0.810500   -0.445800   -1.221200
H      0.426000    1.643200    0.846100
H      0.329200   -1.883800    1.162700
H     -0.596500   -0.559000    2.022400
H     -2.364100    0.692400    0.353700
H     -1.633400   -2.808900   -0.962300
H     -1.864800   -1.406000   -2.011100
H      0.775600   -2.620100   -1.043500
H      0.390100   -2.064500   -2.662100
H      0.663200    0.273700   -2.035100
H      1.882700   -0.475200   -0.996000
