15
gdb_18651
O     -0.042300    0.051100    0.489400
C     -0.052400    1.181800    0.055300
C     -1.301800    1.884100   -0.330200
C     -1.398800    3.212300   -0.229600
C     -0.234100    4.084500    0.171800
C      1.102100    3.382800   -0.052200
C      1.795600    2.572900    1.002200
N      1.126400    1.926800   -0.117700
H     -2.154100    1.253700   -0.556800
H     -2.353100    3.707200   -0.394500
H     -0.255300    5.012900   -0.408800
H     -0.360700    4.393000    1.218500
H      1.736100    3.846500   -0.805300
H      2.879800    2.504400    1.014200
H      1.320500    2.492800    1.977400
