17
gdb_18454
C     -0.012800    1.330400    0.413900
C      0.003000   -0.045800   -0.263700
C     -1.357600   -0.709300   -0.232200
C     -1.639300   -2.150500   -0.138200
C     -0.620800   -2.920500    0.699900
C     -0.925400   -1.876800    1.786700
O     -0.553200   -1.667000    2.898700
N     -1.983200   -1.216100    1.041500
H      0.968100    1.809000    0.345300
H     -0.745200    1.994200   -0.057400
H     -0.275500    1.238000    1.471500
H      0.297700    0.056500   -1.315900
H      0.761100   -0.678700    0.207800
H     -2.112500   -0.147900   -0.781000
H     -2.445100   -2.618200   -0.691800
H     -0.974800   -3.910200    1.000500
H      0.407400   -3.002300    0.340600
