15
gdb_12307
O      0.000800    0.022800    0.382700
C     -0.036800    1.199900    0.133500
C     -1.323000    1.995700   -0.000500
C     -1.197400    3.153900   -0.998900
N     -0.047200    3.969200   -0.623900
C      1.217100    3.282700   -0.864700
C      1.300400    1.983800   -0.069800
O      2.336300    1.532000    0.341400
H     -2.137700    1.309700   -0.247700
H     -1.528900    2.421400    0.991200
H     -1.121600    2.751400   -2.027000
H     -2.098200    3.772800   -0.959800
H     -0.057600    4.853100   -1.119400
H      1.366400    2.996000   -1.927400
H      2.060700    3.915500   -0.577300
