17
gdb_11117
C     -0.600700    1.504800   -0.071900
O     -0.229600    0.245200    0.449000
C     -1.076200   -0.792900    0.054300
C     -0.902300   -1.403000   -1.368900
C     -1.000500   -2.825600   -0.719900
C     -0.712700   -2.158300    0.667900
C     -2.321100   -3.427400   -0.822600
N     -3.374600   -3.898100   -0.902600
H      0.104700    2.238800    0.323600
H     -0.554300    1.526100   -1.170800
H     -1.619300    1.784800    0.237000
H     -2.129000   -0.530900    0.240200
H     -1.631300   -1.156700   -2.141400
H      0.110100   -1.226800   -1.740400
H     -0.257900   -3.551000   -1.057800
H      0.355200   -2.196600    0.892900
H     -1.285000   -2.508500    1.526800
