19
gdb_13643
C      0.431200    0.542500   -1.098000
C      0.115000   -0.566300   -0.207900
C     -0.133500   -1.482800    0.535000
C     -0.476300   -2.569000    1.459300
N     -1.373000   -3.639200    0.994500
C     -2.114800   -3.499300   -0.253300
C     -1.019000   -4.504400   -0.133800
C      0.272400   -4.379600   -0.911900
H      1.428300    0.945400   -0.888700
H      0.417300    0.227500   -2.147200
H     -0.287400    1.362100   -0.988300
H      0.441100   -3.044700    1.827800
H     -0.958600   -2.124000    2.339300
H     -3.160100   -3.797400   -0.217600
H     -1.908100   -2.624100   -0.866100
H     -1.313400   -5.538300    0.048300
H      0.517000   -3.341400   -1.142800
H      1.110200   -4.811900   -0.352300
H      0.191900   -4.932000   -1.854600
