17
gdb_12678
C      0.648400    1.411300   -0.208800
C     -0.086400    0.104200    0.082200
N      0.047300   -0.863700   -1.039500
C      1.293000   -1.618800   -0.831500
C      1.666000   -1.404700    0.633000
O      2.701300   -1.660700    1.195900
C      0.509600   -0.656100    1.290500
O      0.930000    0.104600    2.384800
H      1.714600    1.241200   -0.396100
H      0.223100    1.890200   -1.094000
H      0.569800    2.087400    0.645500
H     -1.149100    0.312800    0.229000
H     -0.741100   -1.499800   -1.024000
H      1.180200   -2.682400   -1.063300
H      2.110100   -1.242800   -1.460600
H     -0.228600   -1.421900    1.598200
H      1.805200   -0.238000    2.624500
