17
gdb_13105
C     -0.461400    0.202500   -0.873000
C      0.154600    0.504000    0.493000
N      0.634400   -0.728600    1.115700
C      0.356100   -0.972200    2.309000
O     -0.363300   -0.260500    3.253600
C     -0.306500   -1.384200    4.192300
C      0.594800   -2.166100    3.215700
O      0.071100   -3.394500    2.780700
H     -1.342600   -0.438300   -0.769300
H     -0.768800    1.128300   -1.369300
H      0.258700   -0.314700   -1.513600
H      1.019400    1.167100    0.362100
H     -0.565600    1.035300    1.129000
H      0.131300   -1.078100    5.144200
H     -1.291700   -1.833800    4.331800
H      1.635800   -2.259100    3.553600
H      0.311600   -3.489900    1.851800
