18
gdb_20137
C      0.130300    1.588000    0.013600
N      1.323400    0.729200    0.049700
C     -0.008300    0.108500   -0.052900
C     -0.462600   -0.678900    1.141900
C     -1.976200   -0.982700    1.347900
C     -1.579000   -2.456100    1.372200
C     -0.880100   -2.829800    0.131200
N     -0.100900   -2.152500    1.187300
H     -0.080700    2.110200    0.943200
H     -0.085000    2.162400   -0.883600
H      1.782900    0.727300   -0.856700
H     -0.293200   -0.292600   -1.023900
H     -0.023400   -0.220300    2.031000
H     -2.357200   -0.603500    2.297600
H     -2.666600   -0.687600    0.551000
H     -1.918900   -3.189300    2.096300
H     -0.583800   -3.866500    0.004900
H     -1.113300   -2.316800   -0.799200
