15
gdb_3057
C     -0.020000    1.427200    0.182400
C     -0.011500   -0.013600   -0.026000
C      0.003000   -1.205700   -0.191900
C     -0.012700   -2.651000   -0.395700
C     -1.386400   -3.263500   -0.180000
C     -1.544800   -4.650100    0.271500
O     -1.755700   -3.554300    1.165100
H      0.686100    1.719500    0.967600
H      0.257900    1.965900   -0.730400
H     -1.012900    1.778100    0.484700
H      0.317900   -2.887500   -1.416800
H      0.694300   -3.140800    0.285300
H     -2.184200   -2.818700   -0.775500
H     -2.436000   -5.213100   -0.002300
H     -0.660200   -5.253400    0.473800
