14
gdb_15210
O      0.103100    1.370400   -0.052000
C     -0.017400   -0.001600    0.003400
C     -0.469900   -0.706100    1.269300
C     -0.823800    0.093600    2.399300
C     -1.101000    0.809500    3.326100
C     -1.372400   -0.690800    0.000100
C     -2.566400    0.093100   -0.023500
C     -3.560900    0.769100   -0.055300
H     -0.482600    1.759100    0.610700
H      0.771200   -0.477000   -0.569900
H     -0.010700   -1.664200    1.492300
H     -1.358300    1.418000    4.157600
H     -1.425100   -1.643000   -0.519800
H     -4.445100    1.356100   -0.082100
