8
gdb_58
N     -0.052300    1.349900    0.155400
C      0.085500   -0.014800    0.026700
N      1.145600   -0.719900   -0.039700
C     -1.194300   -0.711500    0.018000
N     -2.227500   -1.227900    0.001300
H      0.754700    1.920000   -0.044100
H     -0.944600    1.766000   -0.059300
H      1.983100   -0.134200   -0.028800
