14
gdb_4874
O      0.014900    1.370800    0.356400
C      0.009100   -0.000000   -0.002200
C     -1.409400   -0.461700   -0.023900
C     -2.594100    0.206100   -0.124200
N     -3.667900   -0.676200   -0.117300
C     -3.119400   -1.853600   -0.016500
O     -3.746900   -3.042500    0.028800
N     -1.763000   -1.809500    0.045600
H      0.874600    1.733800    0.125500
H      0.482400   -0.148300   -0.988600
H      0.589600   -0.607300    0.716200
H     -2.740000    1.271600   -0.190300
H     -4.690800   -2.846900   -0.026100
H     -1.151500   -2.601800    0.145600
