14
gdb_15737
O     -0.612000   -0.099300    1.136600
C     -0.216200    0.989200    0.797800
C      1.280000    1.368200    0.878900
C      1.885900    1.529000   -0.438800
N      2.344700    1.652600   -1.492600
N     -1.043300    2.033700    0.434400
C     -1.109000    2.719200   -0.848800
C     -2.246800    1.878100   -0.345800
H      1.390200    2.302900    1.438300
H      1.788700    0.569200    1.422600
H     -1.172600    3.802300   -0.799000
H     -0.508600    2.327000   -1.663500
H     -2.410200    0.908700   -0.808100
H     -3.133800    2.359500    0.054600
