10
gdb_3849
N     -0.071100    1.292800    0.290600
C     -0.041900    0.070100   -0.048800
O      1.124900   -0.578100   -0.377000
N      1.143300   -2.000800   -0.770100
N      0.085300   -2.612700   -0.801900
C     -1.152100   -2.027900   -0.481800
C     -1.243500   -0.744800   -0.117700
H      0.866600    1.697500    0.280900
H     -1.992300   -2.704400   -0.559300
H     -2.182200   -0.267900    0.134300
