12
gdb_3025
C      0.050900   -3.755100   -0.037900
C      0.034900   -2.547500   -0.015300
C      0.017400   -1.188600    0.009000
C      0.004900    0.023100    0.040100
C     -0.008500    1.453500    0.045000
C      0.510200    2.196500    1.237300
N      1.268500    2.210800   -0.013800
H      0.063400   -4.816600   -0.056700
H     -0.804100    1.912300   -0.536600
H      0.045700    3.141000    1.504800
H      0.875300    1.605400    2.071700
H      2.043800    1.554400    0.044500
