17
gdb_13116
C     -0.019700    1.486000    0.058000
C     -0.151500   -0.020000    0.194100
O      0.937200   -0.490200    0.988200
C      0.921200   -1.870300    1.181100
C      2.028900   -2.373600    2.146500
N      0.956900   -2.930400    2.979500
C     -0.086400   -2.422600    2.245400
O     -1.278100   -2.406700    2.406100
H      0.931600    1.749600   -0.413200
H     -0.833900    1.882100   -0.555800
H     -0.061600    1.965400    1.040000
H     -1.103100   -0.294700    0.666600
H     -0.119600   -0.506200   -0.795100
H      0.872800   -2.418900    0.228200
H      2.722700   -3.116300    1.742800
H      2.578500   -1.548900    2.608900
H      0.976900   -3.368600    3.888600
