15
gdb_19412
O      0.206100    1.400200   -0.024700
C      0.011300    0.017400   -0.027800
C      0.305900   -0.747800    1.279600
N     -0.649000   -0.171300    2.256900
C     -1.091200   -1.265500    1.342700
C     -1.439700   -0.548700    0.055100
C     -2.699000   -0.024300   -0.457600
O     -2.060200   -1.176100   -1.046800
H     -0.161200    1.711300    0.814000
H      0.528200   -0.398500   -0.896600
H      1.235000   -1.201000    1.600700
H     -0.453200   -0.589300    3.165300
H     -1.472700   -2.205800    1.718400
H     -3.629200   -0.227800    0.070200
H     -2.689900    0.873300   -1.073200
