14
gdb_20328
C     -0.341400   -0.879300   -0.884800
C     -0.070900    0.083800   -0.220700
C      0.223700    1.263300    0.582700
N      1.511700    1.864800    0.262100
C      2.140800    1.936400   -0.937400
C      3.268400    2.707300   -0.745200
C      3.223200    3.062300    0.618100
N      2.154300    2.554100    1.227000
H     -0.575500   -1.738900   -1.463300
H     -0.574500    2.006800    0.455300
H      0.258900    1.011700    1.646600
H      1.748500    1.430400   -1.804300
H      4.015800    2.961500   -1.479000
H      3.924600    3.658300    1.183500
