19
gdb_14185
C      0.018400    1.530100   -0.008600
C      0.021600    0.023500   -0.044400
C      0.519600   -0.939500   -1.119300
N      0.021700   -1.936800   -0.080200
C      0.518500   -0.988300    1.038400
C     -0.825800   -1.058500    1.761700
C     -1.159700   -0.974400    0.265100
C     -2.493700   -1.093600   -0.410700
H      1.035200    1.928800   -0.098200
H     -0.573900    1.942200   -0.833500
H     -0.406400    1.906300    0.928800
H     -0.017600   -0.986400   -2.073100
H      1.600100   -0.999600   -1.293200
H      1.532400   -1.093000    1.430100
H     -1.059500   -2.008800    2.250600
H     -1.105700   -0.204800    2.384800
H     -3.158600   -0.281400   -0.096800
H     -2.397700   -1.050000   -1.500700
H     -2.970500   -2.044200   -0.150700
