18
gdb_1678
C     -0.211600    1.660500   -0.098600
C      0.062800    0.156500   -0.009000
N     -1.153800   -0.654000   -0.065600
C     -1.613500   -1.041600   -1.384400
C     -1.799000   -0.927300    1.113900
C     -3.060800   -1.779600    1.055800
O     -1.375700   -0.508200    2.180600
H      0.728900    2.220600   -0.086600
H     -0.745000    1.920800   -1.019000
H     -0.813400    1.980600    0.755500
H      0.714400   -0.165100   -0.829700
H      0.562300   -0.070000    0.934300
H     -2.559700   -1.576200   -1.328600
H     -1.764100   -0.161700   -2.023200
H     -0.881500   -1.692900   -1.880800
H     -2.883900   -2.750600    0.583200
H     -3.387500   -1.936900    2.083000
H     -3.863300   -1.279500    0.503800
