16
gdb_17363
C      0.558700    0.524600   -0.746700
C     -0.183000    0.148600    0.519300
O      0.051300    0.677500    1.583700
C     -1.232700   -0.952300    0.438900
C     -2.123000   -1.198500   -0.838800
C     -1.582300   -2.633700   -0.889100
O     -0.159400   -2.547100   -1.034700
C     -0.713400   -2.405100    0.275300
H      0.865300   -0.371100   -1.293600
H     -0.108200    1.089300   -1.409800
H      1.415700    1.150400   -0.494500
H     -1.847700   -0.878600    1.338300
H     -3.187500   -1.134800   -0.604900
H     -1.909200   -0.599300   -1.726000
H     -2.058900   -3.536700   -1.251000
H     -0.344200   -3.070400    1.046600
