17
gdb_16936
O     -0.005600   -0.019500    0.075700
C      0.000500    1.185600   -0.025900
N     -1.103300    2.019600   -0.084500
C     -0.657600    3.413500    0.044000
C     -0.075600    3.626300    1.466500
C      1.212100    2.741300    1.424600
C      1.192300    2.153900   -0.023700
C      0.620100    3.345100   -0.817200
H     -1.989300    1.695100    0.274200
H     -1.428900    4.119100   -0.265100
H      0.159800    4.680300    1.642000
H     -0.782600    3.311100    2.238000
H      2.113100    3.343900    1.568000
H      1.215800    1.954600    2.182100
H      2.124100    1.699400   -0.352500
H      0.409100    3.118500   -1.864500
H      1.232300    4.248300   -0.746500
