14
gdb_222
C     -0.035300    1.543100    0.006200
C     -0.004900    0.002800    0.018000
C      0.738500   -0.528200    1.258500
O     -1.341500   -0.513800   -0.010700
C      0.651500   -0.488500   -1.200100
C      1.226700   -0.867900   -2.183600
H      0.975500    1.958400   -0.031300
H     -0.594900    1.897800   -0.861900
H     -0.523600    1.912100    0.915700
H      0.250800   -0.161200    2.169300
H      0.719400   -1.620000    1.265100
H      1.779100   -0.192900    1.269600
H     -1.780800   -0.198000    0.787100
H      1.721800   -1.210800   -3.058400
