20
gdb_7156
C     -0.010000    1.486600   -0.130000
C     -0.001100   -0.014500    0.107700
O     -1.324000   -0.491300   -0.050400
C     -1.459000   -1.907600    0.039500
C     -1.480200   -2.387800    1.500500
C     -2.683800   -2.293400   -0.661600
C     -3.693000   -2.638600   -1.219000
C     -4.913000   -3.042400   -1.902500
H      0.998900    1.896100   -0.021600
H     -0.373500    1.712200   -1.136400
H     -0.666100    1.984100    0.589800
H      0.669500   -0.515600   -0.611000
H      0.385000   -0.235000    1.115600
H     -0.601600   -2.378300   -0.472200
H     -1.601100   -3.473900    1.540100
H     -0.548000   -2.128000    2.009900
H     -2.314900   -1.922200    2.030300
H     -4.695800   -3.691100   -2.758400
H     -5.585000   -3.589500   -1.232200
H     -5.458800   -2.170200   -2.278800
