24
gdb_5814
C     -0.498400    1.504300   -0.418700
C      0.003700    0.071200   -0.243600
C     -1.144300   -0.923900   -0.411600
C      1.267500   -0.267400   -1.100200
C      2.115000   -0.488800    0.195300
C      2.617500   -1.921700    0.370400
C      3.262700    0.506700    0.363200
C      0.851100   -0.150400    1.051900
H      0.312700    2.230900   -0.301300
H     -0.934100    1.650800   -1.414400
H     -1.270100    1.745200    0.322300
H     -1.596700   -0.840000   -1.407100
H     -0.801300   -1.956800   -0.289100
H     -1.932600   -0.745600    0.329600
H      1.161900   -1.157500   -1.728100
H      1.617000    0.553800   -1.733500
H      3.389300   -2.162400   -0.370500
H      3.053100   -2.068000    1.366100
H      1.806700   -2.648600    0.253000
H      2.919400    1.539500    0.240600
H      3.715000    0.423000    1.358700
H      4.051100    0.328400   -0.377900
H      0.956500    0.739400    1.680100
H      0.501600   -0.971900    1.684800
