16
gdb_6061
C     -0.001000    1.493700    0.034800
C      0.034700   -0.011500   -0.014700
N      1.287400   -0.561900   -0.096000
N     -1.057200   -0.677100    0.054400
H     -2.882700   -0.886400    0.211000
C     -1.026400   -2.125200    0.015800
C     -2.455500   -2.683200    0.116500
O     -3.387600   -1.732200    0.226900
O     -2.699000   -3.859900    0.097300
H      0.602700    1.868100    0.868300
H      0.405200    1.922700   -0.888200
H     -1.029800    1.828100    0.158500
H      2.067000    0.027300   -0.333700
H      1.391200   -1.538100   -0.316300
H     -0.594200   -2.523500   -0.915700
H     -0.448600   -2.562500    0.843800
