17
gdb_4775
C      0.161700    1.514300    0.219200
C     -0.101900    0.030200   -0.096700
C      0.594400   -0.460900   -1.327000
C      0.103500   -0.748800   -2.586500
C      1.205700   -1.146700   -3.394300
O      1.190400   -1.526000   -4.707500
C      2.340700   -1.095400   -2.620900
N      1.946200   -0.674100   -1.364500
H      1.228200    1.704200    0.379200
H     -0.165000    2.150000   -0.609000
H     -0.372700    1.823600    1.123200
H      0.189400   -0.580000    0.769600
H     -1.177100   -0.127400   -0.228800
H     -0.931500   -0.681400   -2.890000
H      0.283500   -1.480200   -5.022300
H      3.366000   -1.324800   -2.854500
H      2.566800   -0.552800   -0.584000
