16
gdb_5613
C     -0.025100    1.519600    0.015700
C     -0.010000    0.022500    0.016000
C     -0.025700   -0.805100   -1.062500
O     -0.004000   -2.109600   -0.681800
C      0.026500   -2.117800    0.678300
C      0.024600   -0.850100    1.165200
C      0.052600   -0.443500    2.602500
O      0.086300   -1.613200    3.404100
H      0.863100    1.934600    0.507200
H     -0.052100    1.912600   -1.004300
H     -0.898600    1.916800    0.546900
H     -0.051300   -0.623800   -2.125000
H      0.047100   -3.083400    1.152100
H      0.932100    0.195600    2.793400
H     -0.833500    0.172600    2.834300
H      0.100700   -1.343600    4.326500
