18
gdb_17846
C     -0.025000    1.381800   -0.305500
C      1.439600    1.558500    0.135800
C      1.270500    0.151900    0.737800
O     -0.091200    0.069200    0.289200
C      2.220000   -1.055900    0.544500
C      3.097500   -0.412100    1.657700
C      1.635400   -0.286800    2.177300
C      1.415000   -1.751200    1.685900
H     -0.747000    2.070900    0.148200
H     -0.197000    1.347300   -1.387600
H      2.167900    1.636100   -0.673800
H      1.619400    2.357500    0.857800
H      2.554300   -1.491900   -0.398200
H      3.738100   -1.101600    2.211800
H      3.626300    0.512400    1.411500
H      1.297200    0.161800    3.112700
H      0.390000   -2.042800    1.456300
H      1.947800   -2.527000    2.242100
