13
gdb_3123
O     -0.043200   -0.015400    0.016500
C      0.037800    1.181300   -0.100600
C      1.285500    1.953900   -0.061700
C      1.370800    3.404900    0.362000
C      1.805400    3.036000   -1.021900
C      3.101700    2.233300   -0.958300
O      2.553400    1.325200    0.035900
H     -0.859700    1.825800   -0.251700
H      0.426300    3.936100    0.424300
H      2.099200    3.653400    1.128400
H      1.340000    3.427200   -1.916300
H      3.326500    1.694400   -1.884200
H      3.996500    2.752900   -0.597900
