15
gdb_18783
O      0.029200    0.008500   -0.061800
C     -0.002200    1.201400    0.024300
C     -1.114500    2.251200    0.043100
C     -1.307700    2.889300    1.440500
C     -0.034100    3.712400    1.163500
C      1.301200    2.964700    1.347500
C      1.046300    2.313700   -0.034000
N     -0.076000    3.325600   -0.323900
H     -1.984600    2.090000   -0.595600
H     -2.195600    3.525500    1.452500
H     -1.332500    2.230300    2.312100
H     -0.055400    4.771600    1.424600
H      2.149600    3.651100    1.297500
H      1.426000    2.310000    2.213700
H      1.876500    2.201600   -0.733300
