16
gdb_17748
C     -0.010900    1.456800   -0.076100
C     -0.058200   -0.038700   -0.013400
O      0.273400   -0.725200   -1.249800
C     -0.401800   -1.862900   -0.677400
C      0.345600   -2.251700    0.631100
C     -0.660900   -1.558400    1.522300
C      0.615200   -0.840900    1.144600
C     -1.301000   -0.967600    0.230400
H      1.012700    1.798700   -0.265100
H     -0.652600    1.833800   -0.877300
H     -0.344000    1.887000    0.873500
H     -0.719000   -2.613000   -1.399600
H      0.992000   -3.093100    0.839100
H     -1.063800   -1.831900    2.485900
H      1.471800   -0.581700    1.752400
H     -2.334900   -0.696600    0.030800
