12
gdb_711
N      0.005400    1.425400   -0.227900
C      1.301200    0.759300    0.046900
C      0.049900   -0.029200    0.055800
C      0.514100   -0.780600   -1.237300
N      0.752400    0.216400   -2.308500
C      1.765400    0.007900   -1.246200
H     -0.272500    1.876300    0.644900
H      1.942800    1.067000    0.861800
H     -0.496400   -0.469900    0.879100
H      0.341700   -1.826200   -1.455000
H      1.079000   -0.311000   -3.119300
H      2.780800   -0.289300   -1.472300
