19
gdb_15887
C     -0.094500    1.686700    0.079000
C     -0.009800    0.175100   -0.160400
C     -1.380100   -0.496300   -0.063400
C     -1.514100   -2.045600   -0.134600
C     -0.279400   -2.916100   -0.213200
O     -2.096900   -2.046100    1.217600
C     -1.970300   -0.678800    1.322000
N     -2.248900    0.093600    2.272000
H      0.898200    2.144600    0.036300
H     -0.719700    2.170600   -0.679600
H     -0.533400    1.896500    1.058100
H      0.414400   -0.025600   -1.152500
H      0.675000   -0.271500    0.568800
H     -2.083300    0.005300   -0.736300
H     -2.273300   -2.383700   -0.847200
H      0.471800   -2.615900    0.521400
H     -0.544900   -3.960300   -0.023400
H      0.165200   -2.855200   -1.212000
H     -2.626600   -0.421500    3.069500
