15
gdb_15293
O     -0.933000    1.087300   -0.553000
C     -0.277500    1.818600    0.150200
C      1.210100    1.775600    0.184600
C      1.964900    3.068400    0.366200
N      1.998600    2.061000    1.393400
C      1.383400    2.283800    2.713900
C      0.504200    3.442400    2.884500
C     -0.184400    4.417200    3.034300
H     -0.753900    2.573000    0.808300
H      1.631600    0.996600   -0.445900
H      2.884900    3.219600   -0.192000
H      1.371800    3.964400    0.542100
H      0.853400    1.366100    2.992700
H      2.216700    2.384300    3.420400
H     -0.806300    5.267500    3.172400
