13
gdb_3306
N     -0.003500   -1.203000   -0.072800
C      0.003300   -0.047100   -0.042500
C      0.021900    1.407000    0.030900
C     -0.179300    2.103800    1.417800
N      1.109600    2.863500    1.289100
C      2.164600    1.836200    1.219600
C      1.384700    2.111400    0.000500
H     -0.665400    1.813800   -0.713500
H     -1.030000    2.785600    1.427000
H     -0.223800    1.446000    2.289900
H      3.164500    2.254400    1.270500
H      2.032600    0.897600    1.753800
H      1.799500    2.594400   -0.877100
