16
gdb_12424
O      0.305800    0.046800   -0.557400
C      0.102100    1.169800   -0.168800
C     -1.306700    1.631900    0.219400
C     -1.493600    2.835900    1.099900
C     -0.662700    3.321700    2.036500
C      0.693700    2.875200    2.324900
C      1.548600    2.378300    1.418400
C      1.208800    2.214800   -0.039700
H     -1.829200    1.804800   -0.733200
H     -1.811000    0.759900    0.655100
H     -2.465400    3.314300    0.998700
H     -1.035000    4.132800    2.659700
H      1.039100    3.007600    3.347700
H      2.533600    2.049600    1.734500
H      2.071400    1.886900   -0.621100
H      0.830800    3.165500   -0.440700
