17
gdb_20140
C     -0.172200    0.232700   -0.950300
O     -1.404900    0.647400   -0.362100
C     -0.230000    0.667500    0.452700
C     -0.243000   -0.242800    1.653600
C     -0.340100   -1.789300    1.533200
C      0.990900   -1.828000    2.279300
C      2.019500   -1.041900    1.575800
N      1.055600   -0.315100    2.429300
H     -0.107300   -0.824600   -1.199400
H      0.239100    0.907300   -1.700500
H      0.140700    1.669900    0.679600
H     -1.003300    0.138800    2.341800
H     -1.178700   -2.194000    2.101000
H     -0.348000   -2.238900    0.536700
H      1.227100   -2.484700    3.110000
H      3.021400   -1.033400    1.993300
H      1.978700   -0.928400    0.495900
