16
gdb_7432
C      0.396800    1.260400    0.086800
N      0.066300   -0.153000   -0.048300
C      0.098800   -0.903500    1.202100
C     -0.230800   -0.622300   -1.284900
O     -0.232000    0.091400   -2.285200
C     -0.592300   -2.128300   -1.490900
N     -0.845400   -2.346100   -2.797500
O     -0.645600   -2.991200   -0.631400
H      1.405800    1.371700    0.501600
H      0.346900    1.733200   -0.891200
H     -0.309100    1.747000    0.770500
H     -0.156700   -1.942600    1.026000
H      1.101200   -0.835900    1.643500
H     -0.610100   -0.460600    1.913000
H     -0.774600   -1.566100   -3.431900
H     -1.095300   -3.270600   -3.102600
