17
gdb_2240
C     -0.247400    1.535200    0.053500
C      0.073200    0.062000   -0.006000
C     -0.702500   -0.932200    0.849900
C      0.767900   -0.689500    1.094800
O      1.699100   -1.601700    0.574900
C      1.398600   -1.788800   -0.809000
C      0.678100   -0.508600   -1.285000
H      0.621900    2.141900   -0.226500
H     -1.066900    1.794900   -0.627300
H     -0.553400    1.834500    1.061200
H     -1.398600   -0.515700    1.571000
H     -1.017800   -1.880000    0.425900
H      1.115100   -0.233900    2.015200
H      2.338200   -1.982400   -1.333600
H      0.754800   -2.669900   -0.939200
H     -0.058700   -0.724600   -2.065400
H      1.393400    0.214800   -1.693400
