14
gdb_571
C      0.014000   -1.128300   -0.291600
C      0.005500    0.046900   -0.040000
C      0.020500    1.473300    0.272900
C      1.405300    2.095400    0.163400
C      1.909100    2.591200   -1.165000
C      1.542100    3.575600   -0.079500
H      0.013200   -2.165700   -0.517300
H     -0.667000    2.001700   -0.401000
H     -0.374700    1.626000    1.286300
H      2.142500    1.640100    0.817800
H      2.957400    2.452300   -1.404100
H      1.245800    2.508800   -2.019900
H      0.633500    4.155300   -0.207900
H      2.338800    4.109500    0.426400
