18
gdb_10147
C      0.058700    1.504700    0.008800
C     -0.058300   -0.014100   -0.054600
N      0.713300   -0.546200   -1.165000
C      0.804000   -1.907200   -1.370900
C      1.513300   -2.231300   -2.663600
O      1.710300   -3.341000   -3.085900
N      0.350500   -2.729700   -0.505200
C      0.512900   -4.165600   -0.649000
H      1.101100    1.815300    0.129000
H     -0.334800    1.974700   -0.900400
H     -0.514600    1.894300    0.854100
H      0.320100   -0.476800    0.862200
H     -1.111800   -0.322500   -0.131600
H      0.771700    0.038500   -1.985000
H      1.858200   -1.334300   -3.232600
H     -0.041800   -4.561900   -1.508400
H      1.557400   -4.469800   -0.785500
H      0.127400   -4.644200    0.255900
