14
gdb_15471
O     -0.006200    0.002300   -0.168900
C     -0.032200    1.189500   -0.018900
C     -1.250700    2.090400    0.187000
C     -0.620100    3.448000    0.506000
O      0.644800    3.439400   -0.169400
C      1.201400    2.142400   -0.023800
C      1.968400    1.980900    1.211500
C      2.565700    1.852300    2.246600
H     -1.814200    2.118000   -0.752000
H     -1.904700    1.686200    0.962300
H     -1.180700    4.302800    0.124800
H     -0.473600    3.573800    1.587800
H      1.827900    1.936700   -0.897500
H      3.110500    1.736800    3.151200
