14
gdb_3310
O     -0.656000    0.770300   -0.488500
C      0.193400    0.958200    0.345900
C      1.333100    1.935400    0.208100
C      1.287700    3.012200   -0.898700
C      1.268700    4.033900    0.237300
C      0.148000    3.790600    1.159200
N      1.372500    2.968400    1.324700
H      0.178500    0.421900    1.322000
H      2.274100    1.374900    0.236600
H      2.197300    3.038400   -1.499700
H      0.417300    2.995100   -1.558800
H      1.875100    4.932100    0.282600
H      0.011700    4.482100    1.984400
H     -0.768700    3.333100    0.793800
