16
gdb_10550
C      0.167300    1.381400    0.064600
O      0.237700   -0.024600    0.088300
C      0.521200   -0.577600   -1.171100
C      0.536200   -2.086600   -1.052700
C      1.420100   -2.861900   -1.948800
O      1.776300   -2.652100   -0.589700
C     -0.665900   -2.700800   -0.541100
C     -1.679000   -3.204900   -0.137800
H      1.121400    1.833100   -0.249700
H     -0.622800    1.739000   -0.614900
H     -0.062400    1.711800    1.079900
H     -0.240100   -0.277800   -1.912200
H      1.504800   -0.245200   -1.540500
H      1.135000   -3.877800   -2.214300
H      2.026200   -2.333500   -2.684600
H     -2.569300   -3.649900    0.232800
