18
gdb_18881
C     -0.029800    1.540300    0.079000
C      1.516200    1.479100   -0.011500
C      2.101900    1.051500    1.360700
C      1.754900   -0.451900    1.371700
C      2.254800   -0.911900   -0.008400
C      1.374400    0.086100   -0.750300
C     -0.006100   -0.000200   -0.016200
O      0.328100   -0.585400    1.251900
H     -0.480400    1.974900    0.975800
H     -0.476500    1.988000   -0.814400
H      2.049300    2.299400   -0.493600
H      3.186900    1.194800    1.405600
H      1.650000    1.591700    2.197100
H      2.078200   -1.016200    2.246800
H      3.326100   -0.751400   -0.158400
H      2.004700   -1.956000   -0.214800
H      1.360600    0.093100   -1.838200
H     -0.857400   -0.540400   -0.435600
