22
gdb_13709
C      0.079300    1.542300   -0.267500
C      0.051900    0.048200   -0.025000
C      1.324400   -0.766300   -0.007200
C      0.522300   -0.591400    1.262700
C      1.073800    0.196500    2.434100
C      1.947400   -0.663500    3.356100
C      2.502800    0.111800    4.542900
O      3.283800   -0.779800    5.325400
H      0.972100    2.011400    0.155500
H      0.077000    1.759100   -1.341600
H     -0.794800    2.036900    0.171500
H     -0.802800   -0.444800   -0.482300
H      1.341900   -1.734700   -0.495600
H      2.261100   -0.220100   -0.078300
H     -0.051200   -1.463600    1.570200
H      1.661600    1.048000    2.070700
H      0.243400    0.624600    3.013500
H      1.368600   -1.513600    3.737900
H      2.785100   -1.087000    2.789700
H      3.108800    0.959900    4.182400
H      1.672600    0.535700    5.132400
H      3.634500   -0.292100    6.076100
