14
gdb_10460
O      0.372900   -0.171300   -0.056700
C      0.091500    0.992500   -0.171300
C      1.080000    2.122500    0.076300
C      1.232500    3.024900   -1.144500
C      2.582000    3.569700   -1.489900
N      1.974200    2.532600   -2.323800
C      0.060100    3.819400   -1.459100
N     -0.882300    4.457000   -1.662900
H     -0.926100    1.318600   -0.476900
H      0.719800    2.718600    0.925100
H      2.044900    1.683600    0.344400
H      2.658400    4.546000   -1.957700
H      3.397100    3.310700   -0.819500
H      2.366600    1.617000   -2.113500
