16
gdb_4767
C      0.058900    1.483000    0.026300
C      0.003000   -0.009400   -0.018900
C     -0.189900   -0.826400   -1.104200
N     -0.161100   -2.113700   -0.609500
C      0.056200   -2.023200    0.728400
C      0.115200   -3.239900    1.596200
O      0.346100   -4.361100    0.749500
N      0.158600   -0.773900    1.121800
H      1.017200    1.829700    0.428200
H     -0.067700    1.912000   -0.971600
H     -0.725600    1.889400    0.674100
H     -0.332300   -0.619900   -2.152000
H     -0.224700   -2.980300   -1.116600
H      0.913100   -3.110000    2.340400
H     -0.831100   -3.352800    2.148600
H      0.208100   -5.160700    1.264200
