14
gdb_6660
N     -0.077200    1.293700   -0.150300
C      0.040600   -0.024900    0.190900
O      1.070600   -0.529600    0.570400
C     -1.288400   -0.791200    0.132400
O     -1.006700   -2.153400   -0.061800
C     -2.156500   -2.954900    0.037700
C     -1.793000   -4.355300   -0.197400
N     -1.550900   -5.468700   -0.380800
H      0.765700    1.845800   -0.159300
H     -0.876100    1.646800   -0.648200
H     -1.816200   -0.624700    1.087100
H     -1.937000   -0.401700   -0.670600
H     -2.621300   -2.873700    1.034200
H     -2.922200   -2.666600   -0.701800
