13
gdb_20667
C     -0.034500    1.525600    0.026200
C     -0.010800    0.031000   -0.007900
C     -0.025600   -0.809000   -1.099900
N      0.009600   -2.080200   -0.619700
N      0.046100   -2.149400    0.710700
C      0.034400   -0.866600    1.096000
C      0.065000   -0.511300    2.472700
N      0.087200   -0.164100    3.576700
H      0.863200    1.928700    0.506600
H     -0.090900    1.941100   -0.983000
H     -0.894300    1.898200    0.592700
H     -0.057800   -0.600300   -2.157500
H      0.010000   -2.937900   -1.147200
