12
gdb_889
N      0.130200    1.419700    0.144900
C     -0.015400    0.031900    0.025200
C     -1.095900   -0.776800   -0.028100
N     -0.617200   -2.098000   -0.052000
C      0.763700   -2.136100    0.004100
O      1.501200   -3.101200    0.039300
N      1.114700   -0.783300    0.013000
H      0.596300    1.832300   -0.658400
H     -0.767100    1.873400    0.262400
H     -2.143500   -0.540200   -0.085700
H     -1.169300   -2.935200   -0.008200
H      2.050500   -0.479800    0.219000
