20
gdb_14096
C     -0.266500    1.467200    0.058600
C      0.042200   -0.022700   -0.038400
C      1.289700   -0.387800   -0.907900
C      2.075600   -0.784200    0.377700
C      0.771800   -0.641200    1.169900
C      0.583300   -0.326300    2.633300
C      0.177300   -1.670100    2.074900
O     -1.178700   -1.956000    1.883200
H      0.623000    2.042300    0.340200
H     -0.625700    1.853400   -0.901900
H     -1.041400    1.665200    0.807100
H     -0.864700   -0.570000   -0.310000
H      1.113000   -1.229500   -1.581300
H      1.712800    0.436000   -1.488900
H      2.535000   -1.777000    0.379800
H      2.839000   -0.053100    0.661400
H      1.459100   -0.270700    3.273400
H     -0.218400    0.357700    2.895800
H      0.795500   -2.532800    2.330400
H     -1.583300   -2.077500    2.748300
