16
gdb_16956
O     -0.035800    1.443100   -0.051700
C      0.019100    0.032200    0.037700
C      0.578600   -0.546100    1.375000
C     -0.657700   -1.369000    1.867000
O     -1.178300   -1.846800    0.615200
C     -1.429300   -0.557700    0.048200
C     -2.194900    0.150800    1.158400
C     -1.721200   -0.365500    2.292000
H      0.864000    1.776200   -0.115500
H      0.562800   -0.391000   -0.816300
H      1.434100   -1.204000    1.203400
H      0.869200    0.247600    2.067000
H     -0.444100   -2.200000    2.538000
H     -1.904800   -0.642800   -0.927500
H     -2.888400    0.967300    1.020300
H     -1.933800   -0.074100    3.311600
