13
gdb_5480
O      0.111300    1.388300   -0.045300
C      0.075600    0.035600    0.009200
C      0.023900   -0.775400   -1.126500
N      0.000000   -2.082000   -0.669500
C      0.033800   -2.106500    0.679500
C      0.082000   -0.800500    1.147600
C     -0.004700   -0.491100   -2.534300
O     -0.050500   -1.359700   -3.392500
H      0.144300    1.737200    0.850800
H     -0.037700   -2.860300   -1.307400
H      0.022300   -3.035900    1.227000
H      0.117200   -0.494600    2.182300
H      0.018300    0.585500   -2.795100
