15
gdb_1137
C     -0.300400    1.619100   -0.042500
C     -0.009200    0.129200   -0.073300
C     -1.206200   -0.729400    0.295600
C      0.844300   -0.371400   -1.263300
C      1.905500   -0.626800   -0.195600
O      3.016700   -1.047500   -0.140600
O      1.128500   -0.178600    0.836700
H      0.597600    2.197700   -0.276000
H     -1.075100    1.870100   -0.774300
H     -0.654800    1.920100    0.947800
H     -2.018800   -0.576900   -0.422000
H     -0.940400   -1.790100    0.298200
H     -1.574900   -0.465500    1.291300
H      0.488800   -1.271700   -1.767600
H      1.125100    0.378300   -2.005200
