22
gdb_6893
C     -0.546000    0.536200   -2.635300
C     -0.235100   -0.460900   -1.511500
C     -1.479100   -0.890400   -0.759600
C     -2.360300   -2.067400   -1.179300
C     -2.075500   -2.937200   -2.385900
C     -1.558100   -2.116400    0.106900
C     -0.389500   -3.057200    0.300700
O     -2.281300   -1.892900    1.298700
H      0.366600    0.851100   -3.151200
H     -1.219600    0.096900   -3.378300
H     -1.033000    1.434200   -2.239600
H      0.284900   -1.327700   -1.932600
H      0.469800   -0.003200   -0.804900
H     -2.040200   -0.055200   -0.346200
H     -3.420100   -1.896200   -1.005900
H     -1.006500   -3.077300   -2.564100
H     -2.518500   -3.932800   -2.267400
H     -2.500900   -2.495800   -3.294400
H      0.199200   -3.195000   -0.608600
H      0.273500   -2.674900    1.083500
H     -0.742100   -4.047700    0.615500
H     -2.710600   -2.721900    1.539500
