18
gdb_18599
C      0.285400    1.507500   -0.220900
C      0.043100    0.041800    0.076000
O      0.667500   -0.832900   -0.900100
C      1.359800   -1.574000    0.121000
C      2.863500   -1.314800    0.135000
O      3.029700   -0.043300    0.753600
C      2.052200    0.040200    1.786100
C      0.803700   -0.653600    1.238500
H      1.355800    1.722300   -0.263800
H     -0.158000    1.765500   -1.187800
H     -0.180500    2.139400    0.543500
H     -1.036400   -0.160400    0.118000
H      1.095400   -2.636400    0.114100
H      3.373600   -2.103100    0.714300
H      3.294900   -1.267800   -0.867800
H      2.399600   -0.478500    2.694900
H      1.912900    1.097500    2.026700
H      0.178300   -1.095500    2.013800
