13
gdb_13050
N      0.015000    1.232000   -0.011900
C     -0.053900   -0.012600   -0.181200
O     -1.100400   -0.694100    0.361100
C     -1.091500   -2.087800    0.177100
C     -2.406500   -2.775500    0.563400
O     -2.548800   -3.287300   -0.804800
C     -1.437000   -2.615300   -1.235500
O     -0.997900   -2.529400   -2.334900
H      0.841400    1.603600   -0.475600
H      0.642200   -0.648700   -0.739700
H     -0.191200   -2.550300    0.597300
H     -2.346800   -3.594100    1.281000
H     -3.211800   -2.082100    0.808400
