16
gdb_20177
C      0.045500    1.506200    0.179000
C      1.357800    2.199300   -0.089200
C      2.513700    1.539600   -0.153800
C      2.507700    0.053000    0.049800
O      2.011600   -0.323600    1.388800
C      0.884300   -0.963000    0.795300
C      0.086000   -0.005400   -0.053400
C      1.324500   -0.675900   -0.610200
H     -0.270300    1.714800    1.210800
H     -0.727700    1.951400   -0.460200
H      1.324500    3.277000   -0.226100
H      3.453200    2.049700   -0.339900
H      3.480500   -0.414000   -0.118800
H      0.488600   -1.846800    1.282200
H     -0.840600   -0.440000   -0.420200
H      1.362900   -1.274300   -1.509900
