16
gdb_13919
O     -0.108400    0.003800    0.039600
C     -0.088300    1.197400   -0.020500
C     -1.145600    2.290800   -0.276500
C      0.028400    3.269000   -0.579100
C      1.044700    2.255300    0.011800
C      1.768000    2.496500    1.361800
C      3.032300    2.101300    0.574000
O      2.278500    2.000200   -0.655900
H     -1.853300    2.081200   -1.081300
H     -1.710300    2.536000    0.628500
H      0.197100    3.395800   -1.651100
H     -0.004800    4.249300   -0.100600
H      1.739600    3.533400    1.701400
H      1.484600    1.832500    2.179600
H      3.822000    2.857200    0.505000
H      3.474100    1.139500    0.856100
