19
gdb_13859
N      0.020500    1.241700    0.546600
C     -0.000800    0.111300   -0.217800
O      0.956000   -0.235700   -0.886100
C     -1.308000   -0.674300   -0.195700
C     -2.011800   -0.661600   -1.570400
C     -2.979900   -1.848800   -1.481100
C     -2.179000   -2.939400   -0.731300
C     -1.085800   -2.183500    0.078600
H      0.854100    1.806500    0.543700
H     -0.765700    1.536600    1.097100
H     -1.990200   -0.255400    0.554800
H     -2.505600    0.289900   -1.789900
H     -1.256100   -0.835000   -2.344800
H     -3.863000   -1.559400   -0.898400
H     -3.337300   -2.180600   -2.460200
H     -2.824400   -3.545100   -0.089300
H     -1.710800   -3.626700   -1.442200
H     -0.087300   -2.450800   -0.275400
H     -1.125500   -2.406700    1.148200
