13
gdb_20682
C     -0.020200    1.503400    0.032200
C     -0.021900    0.009300   -0.085800
N      0.098800   -0.586600   -1.217400
C      0.057900   -1.980600   -1.176300
N     -0.261800   -2.671800   -2.191500
N      0.441900   -2.630500    0.057800
N      0.314000   -2.021400    1.138300
N     -0.142100   -0.714700    1.081400
H      0.818100    1.847200    0.648100
H      0.062300    1.933700   -0.965200
H     -0.945700    1.855400    0.500900
H     -0.189000   -3.662200   -1.949200
H     -0.100300   -0.263100    1.982600
