18
gdb_14312
O     -0.355700    1.661600    0.218000
C     -0.190100    0.287000    0.117500
C     -0.403500   -0.719100    1.223100
C     -1.272900   -0.348700    2.419100
C     -2.604300    0.191300    1.858200
O     -2.535100    1.629300    1.890800
C     -2.709600   -0.366600    0.417700
C     -1.297600   -0.732500   -0.021900
H     -1.081500    1.856300    0.835000
H      0.676300    0.082000   -0.505500
H      0.356700   -1.477500    1.381900
H     -1.463100   -1.245600    3.017900
H     -0.823000    0.396000    3.083800
H     -3.457600   -0.118800    2.473100
H     -3.316000    1.976200    1.445800
H     -3.334000   -1.267300    0.418100
H     -3.200000    0.358400   -0.244800
H     -1.199300   -1.499700   -0.783500
