12
gdb_1400
N     -0.086500    1.496100    0.076700
C      0.015700    0.047400    0.017400
C      0.696800   -0.545000   -1.262200
C      0.000100   -0.096400   -2.462800
N     -0.578900    0.291500   -3.384500
C      0.743500   -0.449900    1.195400
N      1.344300   -0.857400    2.093400
H      0.829800    1.930100    0.019100
H     -0.642000    1.834700   -0.703000
H     -1.002300   -0.356800    0.066600
H      1.741600   -0.219700   -1.305200
H      0.696600   -1.639500   -1.222100
