15
gdb_6083
C     -0.231400    1.567000   -0.070600
C      0.074800    0.068200    0.058200
O     -1.089300   -0.689800    0.370500
C      0.754400   -0.443900   -1.137700
C      1.287000   -0.854600   -2.138800
C      1.980100   -1.296900   -3.341600
N      1.608900   -2.542500   -3.763100
O      2.797900   -0.608500   -3.920000
H      0.687400    2.140500   -0.219800
H     -0.888800    1.752000   -0.926400
H     -0.729000    1.912900    0.838900
H      0.738600   -0.083500    0.918200
H     -1.689400   -0.622800   -0.381000
H      1.036600   -3.136100   -3.187900
H      2.115200   -2.946500   -4.534600
