13
gdb_4754
C      0.007700    1.463700    0.004900
N     -0.005400    0.011400    0.018300
C     -0.119500   -0.816700   -1.066100
N     -0.099900   -2.083100   -0.736700
C      0.034200   -2.085600    0.637200
C      0.094000   -0.795200    1.118300
C      0.097200   -3.279700    1.403700
N      0.150900   -4.237400    2.051900
H      0.946500    1.845700    0.415100
H     -0.089400    1.806500   -1.026300
H     -0.826500    1.863300    0.588000
H     -0.213500   -0.425600   -2.068600
H      0.195300   -0.403500    2.116500
