16
gdb_12638
O     -0.410000    1.324400    0.802800
C     -0.030700    0.138500    0.089300
C      0.859700   -0.765500    0.906200
C      0.156900   -1.744400    1.479700
C     -1.306200   -1.658600    1.117600
O     -2.011300   -0.990200    2.164200
C     -1.279200   -0.752300   -0.145200
O     -2.463000    0.002300   -0.284700
H     -0.682100    1.026200    1.683200
H      0.418700    0.496700   -0.840300
H      1.919600   -0.580100    1.036400
H      0.549600   -2.496500    2.154200
H     -1.760700   -2.639700    0.921800
H     -2.801900   -0.636900    1.727700
H     -1.137000   -1.369300   -1.039300
H     -2.219500    0.898800   -0.001600
