19
gdb_15167
C      0.408300    0.319300    0.689000
C     -0.199400    0.271700   -0.717100
N      0.586100   -0.284200   -1.806000
C      1.740500   -0.732500   -1.600800
O      2.453500   -1.249400   -2.634800
C      3.753700   -1.677900   -2.315900
C      3.944700   -3.038400   -1.699300
C      4.290100   -2.790300   -3.153500
H      0.648500   -0.680900    1.065300
H      1.322100    0.922600    0.718500
H     -0.308500    0.770100    1.382000
H     -1.141500   -0.291900   -0.683900
H     -0.486700    1.287700   -1.019400
H      2.273200   -0.764000   -0.643100
H      4.423800   -0.872000   -2.024800
H      4.747800   -3.172700   -0.983200
H      3.049300   -3.614700   -1.496300
H      3.615700   -3.196100   -3.898300
H      5.332200   -2.755800   -3.448900
