14
gdb_3699
C     -0.051800    1.476600   -0.032700
C     -0.018000   -0.016200    0.033000
N     -0.012800   -0.762300   -1.072600
N      0.010800   -2.028800   -0.634000
C      0.027400   -2.125300    0.726000
C      0.008300   -0.828700    1.198400
N     -0.063200   -0.372500    2.527800
H      0.842400    1.927800    0.417300
H     -0.102300    1.800200   -1.074300
H     -0.920100    1.882500    0.499500
H      0.012400   -2.778400   -1.302600
H      0.045600   -3.076700    1.233300
H      0.277500   -1.054700    3.193200
H      0.448800    0.491000    2.661800
