20
gdb_18601
O      0.508600    0.868100   -0.910700
C      0.090800   -0.207400   -0.102700
C      0.185200   -0.071100    1.441100
C     -1.274600   -0.600100    1.575900
C     -2.294800    0.388900    2.155300
C     -2.480500    1.439800    1.042600
C     -2.412100    0.619900   -0.264600
C     -1.433200   -0.536400    0.014300
H      0.120900    1.676300   -0.559400
H      0.650800   -1.071400   -0.470900
H      0.967500   -0.657900    1.928800
H      0.297300    0.970300    1.764500
H     -1.339200   -1.592800    2.024500
H     -3.245900   -0.126100    2.338500
H     -1.972500    0.825100    3.106900
H     -3.412200    2.004300    1.140200
H     -1.666800    2.176000    1.081400
H     -3.401300    0.207300   -0.490800
H     -2.112100    1.216000   -1.132500
H     -1.729600   -1.451400   -0.503000
