14
gdb_21728
N     -0.176800    0.999300   -0.052600
H     -0.824800    0.936800   -0.829200
H      1.340300   -0.266200    1.541200
H      0.484500    1.735200   -0.279200
C     -0.897500    1.321000    1.179800
C     -0.050600    1.010200    2.378900
N      1.214000    0.499700    2.195500
O      1.666400    0.169800    3.485700
C      0.687500    0.690300    4.365400
N      0.802500    0.677200    5.621200
N     -0.367700    1.202900    3.613000
H     -1.249000    2.359800    1.268200
H     -1.790800    0.690200    1.241800
H      1.675100    0.232900    5.901600
