13
gdb_18210
N      0.112400   -1.162800   -0.067200
C      0.061400   -0.010100   -0.032900
C      0.009200    1.458200   -0.051300
O     -0.647300    1.916100    1.123800
C     -0.068000    3.148400    1.557900
C      1.318700    3.182500    0.958800
O      2.054800    1.977400    1.195600
C      1.382100    2.122700   -0.048400
H     -0.531600    1.769000   -0.960300
H     -0.650700    4.011000    1.201100
H     -0.071900    3.144400    2.651700
H      1.891500    4.103200    0.902900
H      1.986800    2.145200   -0.949600
