12
gdb_9157
C      0.023800    1.461000    0.096300
N     -0.080900    0.013500    0.134600
C     -1.212200   -0.644800   -0.230600
O     -2.238900   -0.122000   -0.620300
C     -1.103200   -2.099600   -0.116400
C     -1.093000   -3.306400   -0.050000
C     -1.065100   -4.668900    0.030800
N     -1.033100   -5.827700    0.102400
H      0.820900    1.778000   -0.584000
H     -0.928900    1.851200   -0.261700
H      0.226500    1.865500    1.093300
H      0.708300   -0.532300    0.441800
