20
gdb_7011
C     -1.037000    1.046400   -1.097200
C     -0.051700   -0.052500   -0.759800
O      1.281700    0.221000   -1.249300
C      1.877800   -0.317300   -0.045400
C      3.073500    0.478800    0.430600
C      0.508700   -0.274800    0.680900
C      0.296900    0.863000    1.668000
O      0.210800   -1.525700    1.270400
H     -0.710800    2.016200   -0.712400
H     -1.138200    1.132200   -2.183900
H     -2.026600    0.817900   -0.686100
H     -0.412300   -1.017700   -1.147300
H      2.160600   -1.370000   -0.194400
H      2.820600    1.528800    0.599800
H      3.469500    0.055100    1.359400
H      3.866400    0.439800   -0.322900
H      0.575400    1.830300    1.243700
H     -0.757900    0.926000    1.963600
H      0.894100    0.696300    2.569600
H     -0.597900   -1.435800    1.785200
