16
gdb_16304
C     -0.051600    1.572000   -0.228700
C      0.078300    0.085300    0.022000
O      1.143400   -0.549400   -0.754800
C      1.669900   -1.161600    0.408200
C      2.158700   -0.181000    1.399600
C      0.661200   -0.443600    1.337800
C     -0.083000   -1.038800    2.452000
O      0.421400   -1.505300    3.448700
H      0.859800    2.108700    0.046600
H     -0.253100    1.757800   -1.288100
H     -0.885600    1.978200    0.353400
H     -0.865300   -0.429100   -0.205800
H      1.933800   -2.212300    0.367100
H      2.608800   -0.599200    2.293900
H      2.554200    0.771500    1.062200
H     -1.187800   -1.055900    2.306800
