16
gdb_10970
C      0.019600    1.545500    0.082800
C     -0.022500    0.055600   -0.058200
C      0.671800   -0.786500   -1.175300
C     -0.242900   -1.935900   -0.627600
C      0.278300   -2.022200    0.814700
O      0.414200   -0.613900    1.144500
C     -1.267500   -0.790200   -0.437400
O     -2.425800   -0.607700   -0.656600
H      1.040400    1.888800    0.275700
H     -0.346800    2.023600   -0.829500
H     -0.612300    1.862500    0.917100
H      0.417800   -0.471500   -2.189200
H      1.748400   -0.922100   -1.051800
H     -0.459000   -2.854300   -1.167000
H     -0.427000   -2.504000    1.501300
H      1.253300   -2.516300    0.897100
