16
gdb_10755
C      0.335200    1.319100    0.206500
C     -0.176400   -0.108700   -0.001600
O      0.221400   -0.989700    1.038700
C     -1.711300   -0.135400    0.029400
O     -2.401100    0.692200   -0.504000
C      0.248600   -0.622800   -1.381200
C      1.301900   -1.630300   -1.553200
O     -0.076400   -1.975200   -1.690600
H      1.418900    1.370300    0.053000
H     -0.151300    1.998300   -0.497100
H      0.105500    1.653500    1.221900
H      1.127600   -0.778900    1.283700
H     -2.127700   -1.003500    0.580800
H      0.055400    0.081900   -2.190900
H      1.885000   -1.643700   -2.473000
H      1.790600   -2.049800   -0.676900
