16
gdb_16883
O      0.009700   -0.043300    0.075300
C     -0.006900    1.174100    0.030100
N     -1.144900    1.912100    0.292100
C     -1.333700    3.299500   -0.105800
C     -0.061000    4.095400    0.099600
C      0.784700    3.910400    1.341300
C      1.223200    3.330500    0.009900
N      1.118700    1.923200   -0.259600
H     -1.965300    1.329100    0.352700
H     -1.627400    3.382000   -1.164700
H     -2.154700    3.717600    0.488800
H     -0.084400    5.084500   -0.345900
H      1.315200    4.772700    1.729600
H      0.431500    3.211500    2.091300
H      2.066300    3.787600   -0.496700
H      1.961500    1.372800   -0.187100
