18
gdb_11050
C      0.030400    1.497100    0.071500
C     -0.026400   -0.004200   -0.065800
C      0.689400   -0.702100   -1.237900
C      0.316000   -2.107600   -0.703200
C      0.919800   -1.968400    0.729400
O      0.667100   -0.606500    1.080100
C     -1.183200   -1.941100   -0.518400
C     -1.394600   -0.679200   -0.130100
H      1.067300    1.842700    0.103700
H     -0.474900    1.976300   -0.772500
H     -0.463400    1.816300    0.994400
H      0.245000   -0.487200   -2.211000
H      1.764400   -0.497500   -1.251900
H      0.658600   -2.979800   -1.258900
H      0.445400   -2.642600    1.452200
H      2.002000   -2.153700    0.729000
H     -1.904800   -2.746700   -0.574100
H     -2.320900   -0.228400    0.203700
