15
gdb_20260
C     -0.014400    1.524500    0.000100
C      1.526800    1.497700    0.009400
O      1.991800    1.482400    1.352300
C      1.688100    0.200000    1.843300
C      1.817800   -0.862300    0.797000
C      0.435100   -0.507500    1.355000
N     -0.040700    0.018600    0.047300
C      1.405800   -0.024900   -0.413500
H     -0.492200    2.039500    0.837200
H     -0.448000    1.861600   -0.946600
H      2.108100    2.224900   -0.561100
H      2.021200    0.043700    2.861600
H      2.419400   -1.759000    0.835000
H     -0.232900   -1.058800    2.008800
H      1.607200   -0.331600   -1.438500
