13
gdb_10478
C     -0.013600    1.453600   -0.022500
C      0.013500    0.000800    0.013600
C      0.030800   -1.202300    0.038300
C      0.075700   -2.639300    0.058500
C     -0.585600   -3.419500    1.138600
O     -1.159100   -3.348300   -0.155400
C      1.228500   -3.240300   -0.597300
N      2.152400   -3.710800   -1.106700
H      0.840300    1.844600   -0.585400
H     -0.927600    1.814100   -0.506100
H      0.024100    1.877200    0.986600
H     -0.167800   -4.383600    1.422100
H     -1.100400   -2.862600    1.918700
