16
gdb_16542
C     -0.082200    1.403800    0.274000
N     -0.072200   -0.036900    0.256600
C     -1.157500   -0.960800   -0.055600
C     -1.533300   -1.081600   -1.549900
O     -0.459200   -2.018300   -1.790800
C     -0.069900   -2.018200   -0.399400
C      0.953000   -0.922200   -0.093700
N      2.213200   -0.879200   -0.180700
H      0.915700    1.760800    0.544600
H     -0.349000    1.840500   -0.699400
H     -0.787400    1.773500    1.025800
H     -1.938100   -1.053000    0.700700
H     -2.510100   -1.547500   -1.729500
H     -1.445400   -0.170900   -2.153700
H      0.044200   -3.015300    0.024600
H      2.583500    0.052500    0.017600
