12
gdb_21867
O     -0.097600    1.296600    0.009900
C      0.052200   -0.034400    0.002400
N      1.214200   -0.586100   -0.007000
C      1.249200   -1.988900   -0.014000
N      2.313100   -2.698700   -0.023700
C     -0.058500   -2.666000   -0.010200
N     -1.194700   -2.064500   -0.000600
N     -1.129500   -0.699800    0.006100
H      0.797600    1.665200    0.006600
H      3.128700   -2.082100   -0.025300
H     -0.076800   -3.750200   -0.015800
H     -2.010300   -0.212800    0.013200
