19
gdb_6464
C     -0.149600    1.553100    0.058400
C      0.087600    0.039600    0.040800
C      0.781700   -0.488300   -1.222400
C      2.196500    0.059400   -1.409800
C      0.660700   -2.037600   -1.413700
C     -0.168000   -1.716200   -2.679500
O     -0.703400   -2.348800   -3.550000
N     -0.055700   -0.369300   -2.439700
H      0.787400    2.118000    0.060100
H     -0.734300    1.871500   -0.811900
H     -0.709600    1.845100    0.951500
H      0.687900   -0.251900    0.912000
H     -0.875500   -0.475100    0.136300
H      2.817100   -0.166600   -0.536200
H      2.667400   -0.385100   -2.291300
H      2.193000    1.145600   -1.544000
H      1.598300   -2.558100   -1.617600
H      0.108600   -2.565100   -0.633500
H     -0.328200    0.427000   -2.997800
