13
gdb_10368
C     -0.223000   -1.307500   -0.163700
C     -0.114300   -0.115300   -0.072500
C      0.018600    1.327200    0.076200
C     -0.187100    1.903700    1.517900
C      1.260400    2.404900    1.371500
O      1.393100    1.778800    0.069800
C     -0.770500    2.026600   -0.956800
N     -1.393800    2.601600   -1.741300
H     -0.317500   -2.361900   -0.258400
H     -0.962800    2.663600    1.599000
H     -0.341500    1.125600    2.263500
H      1.377500    3.491300    1.306600
H      1.985300    2.000300    2.083900
