13
gdb_20323
C     -0.433900   -0.795600   -0.957400
C     -0.133500    0.105300   -0.221900
C      0.228600    1.204700    0.666000
C      1.521400    1.876700    0.286200
N      2.099800    2.770700    1.092500
N      3.179600    3.135000    0.413700
N      3.366100    2.559600   -0.764100
C      2.312800    1.747300   -0.868300
H     -0.704000   -1.596300   -1.600500
H     -0.580000    1.947800    0.672800
H      0.304100    0.840700    1.697900
H      3.830200    3.810300    0.781600
H      2.168100    1.120400   -1.732200
