17
gdb_12595
C     -0.021900    1.452800    0.012800
N     -0.000200    0.008000    0.042000
C     -0.017900   -0.757100   -1.115300
O     -0.052500   -0.320400   -2.245500
C      0.014600   -2.218700   -0.654700
C      0.050300   -2.109800    0.843900
C      0.040300   -0.816100    1.191300
C      0.065200   -0.202100    2.551100
H      0.873300    1.881900    0.476400
H     -0.051900    1.744300   -1.038700
H     -0.905400    1.856100    0.520000
H     -0.866100   -2.742300   -1.045300
H      0.889400   -2.717000   -1.089000
H      0.079400   -2.941200    1.531900
H      0.095900   -0.984800    3.311600
H      0.940800    0.443200    2.688000
H     -0.821400    0.416900    2.732100
