19
gdb_14382
C     -0.020600    1.575100    0.028100
C      0.060700    0.050500    0.003700
C     -1.331600   -0.572700    0.157000
C      0.844900   -0.636800   -1.111100
C      2.289600   -0.718700   -0.731500
C      2.481400   -0.104100    0.643000
C      1.083100   -0.684900    0.918400
N      1.317000   -1.744700   -0.212900
H      0.949100    2.049100   -0.141500
H     -0.702100    1.933000   -0.752100
H     -0.410300    1.931200    0.989000
H     -1.990100   -0.265400   -0.663200
H     -1.277100   -1.664600    0.158800
H     -1.798300   -0.249000    1.094300
H      0.508500   -0.847900   -2.121800
H      3.053300   -0.991000   -1.452000
H      3.244900   -0.653100    1.200700
H      2.650500    0.971000    0.752900
H      0.790900   -1.020200    1.913200
