10
gdb_199
O      0.114500    1.350100    0.215200
C      0.073300    0.012900    0.003300
C      0.077600   -0.801500   -1.098200
N      0.018400   -2.123800   -0.697000
C     -0.020500   -2.101100    0.608900
N      0.010900   -0.815000    1.093300
H      0.157500    1.792600   -0.638000
H      0.119200   -0.521400   -2.139500
H     -0.071000   -2.956900    1.264600
H     -0.007400   -0.511000    2.052500
