19
gdb_5947
C      0.107000    1.368200    0.098000
O     -0.049800   -0.029300   -0.024600
C     -1.374700   -0.561100    0.006800
C     -2.153700   -0.123600    1.254800
C     -2.139700   -0.204000   -1.277300
C     -1.128800   -2.090900    0.020900
C     -0.433300   -2.555200    1.219200
N      0.098800   -2.934100    2.172200
H      1.174900    1.565400   -0.021200
H     -0.435400    1.926600   -0.677800
H     -0.205800    1.741800    1.081700
H     -2.382400    0.944900    1.225400
H     -3.105600   -0.660300    1.313900
H     -1.582200   -0.335400    2.162100
H     -1.565200   -0.500900   -2.159600
H     -3.110800   -0.707700   -1.305900
H     -2.328400    0.871100   -1.336500
H     -2.081600   -2.623700   -0.061600
H     -0.525200   -2.351200   -0.854400
