17
gdb_15592
O      0.456100    0.956200   -0.731600
C      0.073900   -0.137500    0.057700
C      0.390000   -0.047100    1.556700
C     -0.386900   -1.226000    2.165300
C     -1.658800   -1.400300    1.278500
C     -1.457300   -0.470500    0.044000
C     -2.214500    0.774800    0.155400
N     -2.763300    1.788700    0.253100
H     -0.015700    1.738400   -0.418500
H      0.592600   -1.001900   -0.373000
H      1.463600   -0.081300    1.754500
H      0.011400    0.908900    1.941400
H      0.220900   -2.135300    2.126400
H     -0.640900   -1.060500    3.214400
H     -1.771200   -2.434700    0.946100
H     -2.571600   -1.138400    1.816200
H     -1.745100   -0.952600   -0.893900
