20
gdb_18081
C      0.084500    1.447600   -0.187000
C     -0.109700   -0.039100   -0.429900
O      1.121000   -0.585100   -0.878600
C      1.047500   -1.948300   -1.155100
C      0.512700   -2.486800   -2.452800
C      0.839000   -1.527900   -3.605500
C      2.354800   -1.610400   -3.241900
C      2.020800   -2.570000   -2.092400
H      0.862400    1.615700    0.563400
H      0.385900    1.951700   -1.109800
H     -0.845600    1.901200    0.168600
H     -0.427800   -0.544100    0.497500
H     -0.896700   -0.215600   -1.179400
H      0.799600   -2.560800   -0.284900
H     -0.231900   -3.274400   -2.482500
H      0.624800   -1.960700   -4.584800
H      0.375800   -0.538600   -3.549600
H      2.941900   -2.088300   -4.028700
H      2.840400   -0.676600   -2.949200
H      2.615300   -3.428900   -1.802600
