18
gdb_7561
C      0.061700    1.468200    0.188300
C      0.069000    0.006900   -0.202700
O      1.032200   -0.547200   -0.681800
C     -1.229500   -0.781000    0.014800
C     -1.922400   -0.993500   -1.326100
C     -1.070000   -2.025400    0.924400
C     -1.964600   -1.247700    1.907600
O     -2.103800   -0.143600    0.984700
H      0.993900    1.937400   -0.127800
H     -0.798200    1.982200   -0.253700
H     -0.060500    1.559800    1.272200
H     -1.253800   -1.525800   -2.008500
H     -2.837100   -1.576700   -1.187400
H     -2.193900   -0.034600   -1.779800
H     -1.510200   -2.936400    0.515700
H     -0.050500   -2.233100    1.249300
H     -2.933200   -1.702700    2.142300
H     -1.483100   -0.937900    2.843200
