18
gdb_13402
O     -0.086800    1.425000    0.157300
C      0.006300    0.009600    0.071900
C     -1.410200   -0.545300   -0.000600
C     -1.438100   -2.069500   -0.146600
O     -0.786000   -2.690400    0.970800
C     -1.652100   -3.632400    1.597400
C     -2.945100   -3.541300    0.837300
C     -2.820900   -2.666000   -0.152400
H      0.799600    1.774600    0.285500
H      0.570500   -0.298300   -0.824800
H      0.518700   -0.416800    0.945300
H     -1.960100   -0.256100    0.901600
H     -1.924400   -0.092600   -0.857500
H     -0.889200   -2.342900   -1.065700
H     -1.210400   -4.641200    1.549500
H     -1.767700   -3.382700    2.663600
H     -3.821900   -4.125400    1.086700
H     -3.574900   -2.387900   -0.877700
