14
gdb_13246
O     -0.175400   -0.007500   -0.358800
C     -0.007000    1.051400    0.201000
C      1.192100    1.843700    0.103600
C      2.186500    2.528600    0.044500
C      3.374100    3.342200   -0.052300
C      4.069600    3.497200   -1.436400
O      4.066300    4.930600   -1.315800
C      3.225700    4.888500   -0.150400
H     -0.791600    1.495300    0.847100
H      4.084800    3.052800    0.727100
H      5.081300    3.087400   -1.517100
H      3.460800    3.147500   -2.278500
H      2.202300    5.222000   -0.361700
H      3.637200    5.467700    0.682400
