15
gdb_19117
C     -0.039400    1.546900    0.038100
C     -0.066200    1.568000   -1.535400
C     -0.008500    0.010000   -1.539000
C     -0.021200   -0.026800    0.019700
C      1.536200    0.010500   -0.042700
C      1.534300    1.568300    0.014600
C      1.492800    1.550200   -1.543900
N      1.523700    0.018100   -1.575100
H     -0.665200    2.159200    0.683900
H     -0.710800    2.194100   -2.150100
H     -0.546400   -0.659700   -2.210500
H     -0.629600   -0.675300    0.648000
H      2.224500   -0.658900    0.474000
H      2.169000    2.194800    0.639200
H      2.146600    2.103100   -2.218900
