16
gdb_3597
C     -0.452200    1.420900    0.238200
C     -0.015200   -0.022800    0.153300
N      1.285500   -0.300200   -0.472500
C      1.095600   -0.614700    0.954300
C      1.922100    0.154900    1.929900
C      1.852300   -0.118000    3.371300
O      2.954800   -0.584500    2.594500
H      0.396200    2.083900    0.421000
H     -0.921200    1.733200   -0.700900
H     -1.182800    1.560900    1.042200
H     -0.825100   -0.716100   -0.074100
H      1.253600   -1.146200   -1.034000
H      0.987800   -1.661900    1.234100
H      2.228400    1.146900    1.602500
H      2.077900    0.673700    4.084600
H      1.179100   -0.892100    3.739300
