17
gdb_7483
C     -0.056500    1.651500    0.091500
C     -0.023400    0.133200    0.012000
C      1.096800   -0.474700   -0.874000
O      1.847600   -0.856400    0.293000
C      0.729900   -0.565600    1.159300
O     -1.333700   -0.408500   -0.145800
C     -1.918200   -0.271900   -1.353200
N     -3.113000   -0.642400   -1.520100
H      0.946900    2.040100    0.287200
H     -0.416200    2.092500   -0.843900
H     -0.721500    1.971100    0.899300
H      0.768000   -1.344600   -1.457800
H      1.654300    0.214200   -1.518600
H      1.018700    0.054200    2.014500
H      0.221200   -1.472600    1.506200
H     -1.260300    0.158700   -2.120100
H     -3.391300   -0.492100   -2.487700
