22
gdb_5847
C      0.016600    1.510900   -0.082900
C      0.007900   -0.024900    0.043700
C      0.741800   -0.426900    1.338800
C     -1.451100   -0.515100    0.109900
C      0.698600   -0.614600   -1.215000
O      2.059000   -0.174300   -1.351500
C      0.678700   -2.141800   -1.364200
O      1.358400   -2.526000   -2.541700
H      1.034900    1.887600   -0.206600
H     -0.567300    1.835200   -0.951300
H     -0.420900    1.975800    0.807000
H      0.240100    0.012800    2.206700
H      0.762200   -1.511000    1.487200
H      1.774600   -0.059000    1.356000
H     -1.979600   -0.314800   -0.828800
H     -1.519500   -1.587800    0.314300
H     -1.988700    0.005900    0.909100
H      0.201100   -0.197800   -2.099400
H      2.542900   -0.470600   -0.571800
H      1.131200   -2.613400   -0.473700
H     -0.346700   -2.513500   -1.445700
H      2.116100   -1.929000   -2.600600
