16
gdb_6748
C     -0.071400    1.501700    0.011400
C      0.061300   -0.008200    0.001600
O      1.133900   -0.574700   -0.012000
C     -1.188900   -0.743600    0.009500
C     -2.232300   -1.351600    0.016100
C     -3.464800   -2.122200    0.023800
C     -3.222200   -3.636500    0.013400
O     -4.498900   -4.248500    0.022400
H      0.920300    1.956200    0.004400
H     -0.643800    1.834200   -0.861400
H     -0.626900    1.824300    0.898600
H     -4.061600   -1.867200    0.908200
H     -4.078400   -1.857800   -0.846300
H     -2.642500   -3.906800   -0.881200
H     -2.625500   -3.916300    0.893800
H     -4.378200   -5.202400    0.015800
