15
gdb_2522
C      0.217700    1.482300    0.242200
C     -0.055900   -0.019200    0.113900
C     -1.544000   -0.348600    0.001500
C     -2.169000    0.053800   -1.331500
O     -3.355400    0.103600   -1.525700
C     -1.856800   -1.834700    0.215300
O     -1.033900   -2.661800    0.500400
H      1.291200    1.678800    0.314300
H     -0.163100    2.042800   -0.619100
H     -0.258200    1.895100    1.138400
H      0.462900   -0.424500   -0.764000
H      0.355800   -0.558400    0.971500
H     -2.135100    0.171200    0.771200
H     -1.436600    0.259200   -2.144500
H     -2.930000   -2.086700    0.085200
