17
gdb_8074
C     -0.113000    1.524700    0.002100
C      0.065300    0.029500    0.015500
C      1.092400   -0.697200   -0.895400
C      1.030400   -1.836800    0.165500
C      0.715000   -0.723200    1.208900
N     -0.179600   -2.634300   -0.061400
C     -1.210300   -1.917900   -0.237400
O     -1.242300   -0.563200   -0.226300
H      0.846200    2.018700    0.179900
H     -0.504100    1.857700   -0.964400
H     -0.816500    1.836200    0.780400
H      0.791300   -0.936800   -1.917400
H      2.052600   -0.176800   -0.888400
H      1.893000   -2.485400    0.312200
H      1.615600   -0.206900    1.548400
H      0.078600   -0.986000    2.056500
H     -2.195100   -2.340600   -0.419200
