18
gdb_16454
C      0.012700    1.548700   -0.026700
C      0.036000    0.035500   -0.008800
C      0.467800   -0.699000   -1.277400
C      0.389500   -1.991900   -0.963600
C     -0.085400   -1.981000    0.478500
C      0.645100   -0.789900    1.200700
C     -0.627600   -0.532700    2.040600
C     -1.143000   -0.824500    0.612100
H      1.007900    1.950500   -0.248100
H     -0.669800    1.918000   -0.800500
H     -0.310000    1.973200    0.928200
H      0.764100   -0.227900   -2.205100
H      0.604100   -2.864600   -1.564300
H     -0.245000   -2.915000    1.018400
H      1.688500   -0.776200    1.530600
H     -0.863800   -1.281400    2.802100
H     -0.777400    0.474200    2.436600
H     -2.178100   -0.851000    0.257900
