20
gdb_13638
C     -0.065200    1.443800   -0.313800
C     -0.037400    0.013200   -0.042900
C     -0.007000   -1.169800    0.179500
C      0.002500   -2.605700    0.452300
C     -1.360300   -3.253400    0.238600
C     -1.782200   -3.740600   -1.125000
C     -1.527500   -4.735200   -0.015500
C     -0.366600   -5.704700   -0.080900
H      0.759500    1.742300   -0.970800
H     -0.999700    1.738800   -0.804200
H      0.021100    2.028200    0.609200
H      0.752700   -3.089800   -0.184400
H      0.332600   -2.777500    1.486300
H     -2.141200   -2.792200    0.836800
H     -2.799300   -3.562700   -1.456600
H     -1.043400   -3.685600   -1.919600
H     -2.420000   -5.164400    0.433800
H      0.502500   -5.273800   -0.586300
H     -0.047600   -6.019400    0.919400
H     -0.648600   -6.605900   -0.636600
