18
gdb_17043
C     -0.027100    1.553100    0.047400
C      0.023100    0.028000    0.200800
C     -1.358200   -0.607200    0.072400
C     -2.058100   -0.760800   -1.336900
C     -1.102100   -1.975200   -1.600400
C     -1.520700   -2.166700   -0.100900
C     -2.923600   -1.803900   -0.612900
O     -4.060300   -2.145900   -0.508800
H      0.961200    1.996700    0.201100
H     -0.371200    1.840200   -0.951600
H     -0.711100    2.002800    0.775300
H      0.733100   -0.386800   -0.520400
H      0.418000   -0.224800    1.193200
H     -2.015500   -0.181100    0.838600
H     -2.354200    0.023000   -2.030800
H     -1.443200   -2.730000   -2.311400
H     -0.056500   -1.724200   -1.768900
H     -1.212600   -2.951300    0.587300
