13
gdb_4681
C      0.002700    1.498100    0.087100
C     -0.003200    0.012900   -0.035600
C     -0.062100   -0.827200   -1.128900
N     -0.040900   -2.139300   -0.752700
C      0.030500   -2.118200    0.565000
N      0.055800   -0.831300    1.043400
C      0.078200   -3.238600    1.432700
N      0.119200   -4.123600    2.178500
H      0.914600    1.864900    0.572200
H     -0.051100    1.949400   -0.905700
H     -0.852100    1.864100    0.667500
H     -0.118700   -0.542400   -2.168900
H      0.108300   -0.563900    2.013500
