19
gdb_9373
C      0.110300    1.584400   -0.004300
C     -0.013300    0.048100   -0.033900
C     -1.475200   -0.460300    0.007900
C     -2.201400   -0.124300    1.313200
C     -3.597000   -0.734300    1.371800
O     -4.183900   -0.347200    2.603500
C      0.660700   -0.486500   -1.223000
N      1.180300   -0.905200   -2.166900
H      1.157000    1.890900   -0.069900
H     -0.428900    2.031100   -0.844800
H     -0.304200    1.981700    0.924800
H      0.515200   -0.360600    0.837700
H     -2.017200   -0.040200   -0.848300
H     -1.465300   -1.546900   -0.135900
H     -1.626500   -0.492100    2.172400
H     -2.301000    0.958700    1.441000
H     -4.193200   -0.380100    0.514700
H     -3.527500   -1.831300    1.287500
H     -5.065100   -0.728900    2.651700
