13
gdb_12219
O     -0.006800    1.442800    0.170700
C      0.024200    0.046500    0.060900
C     -1.384400   -0.591500   -0.058900
N     -0.972200   -1.141300   -1.369900
C     -1.656700   -1.935500   -2.275700
O     -1.220400   -2.309100   -3.331300
C      0.293500   -0.517500   -1.359000
O      1.175800   -0.438500   -2.157600
H      0.850500    1.781200   -0.112800
H      0.653700   -0.427000    0.826900
H     -1.630900   -1.352300    0.684400
H     -2.177200    0.156300   -0.129300
H     -2.667900   -2.189800   -1.899000
