24
gdb_14871
C      0.082100    1.731600   -0.101300
C     -0.319600    0.271800   -0.342300
C      0.712200   -0.491600   -1.164900
C      2.107600   -0.794500   -0.549100
C      2.083400   -2.174400   -1.257900
C      0.543400   -2.023500   -1.453400
C     -0.297500   -2.814100   -0.447800
C     -0.335800   -4.314300   -0.758100
H      1.038600    1.796500    0.428500
H      0.192400    2.272900   -1.047700
H     -0.666600    2.258400    0.498700
H     -0.467600   -0.226800    0.623700
H     -1.291100    0.241200   -0.853900
H      0.850600    0.027200   -2.122300
H      2.929500   -0.115700   -0.790100
H      2.054300   -0.892700    0.540400
H      2.625100   -2.159200   -2.207700
H      2.427800   -3.038100   -0.681900
H      0.182700   -2.251700   -2.463000
H      0.092200   -2.663000    0.567500
H     -1.322500   -2.422200   -0.440800
H     -0.774900   -4.500300   -1.744800
H      0.669200   -4.749600   -0.758400
H     -0.932500   -4.858900   -0.019600
