10
gdb_733
C     -0.001800    1.498900    0.043900
C      0.026700    0.011800   -0.048700
C     -0.118500   -0.834800   -1.101200
O     -0.013300   -2.092800   -0.677200
N      0.212000   -2.015100    0.732100
N      0.228200   -0.800800    1.052200
H      0.944000    1.885800    0.435700
H     -0.173000    1.944000   -0.939000
H     -0.797500    1.835000    0.715900
H     -0.292800   -0.682900   -2.153800
