17
gdb_16681
C     -0.152900    1.557800    0.010900
C      0.005700    0.044100    0.016000
C      1.132600   -0.602900   -0.848200
C      2.131900   -0.248300    0.291700
C      0.870900   -0.597700    1.165600
C      0.759700   -2.087300    0.803900
O      0.678100   -3.064000    1.504200
N      0.832900   -2.031100   -0.593100
H      0.783000    2.096300    0.180700
H     -0.561100    1.894900   -0.948300
H     -0.855900    1.864800    0.792300
H     -0.968600   -0.430200   -0.134800
H      1.292500   -0.366800   -1.899600
H      3.013500   -0.885700    0.397500
H      2.419900    0.801800    0.340500
H      0.770800   -0.342200    2.217800
H      1.323100   -2.765200   -1.084100
