14
gdb_23647
C      0.000400    1.497700    0.038000
C      0.019700   -0.005800   -0.021600
C     -0.109200   -0.702400   -1.221900
C     -0.082400   -2.096300   -1.202000
C      0.071300   -2.757200    0.007100
C      0.190300   -1.953800    1.138600
F      0.339600   -2.549900    2.320500
N      0.169000   -0.643900    1.153400
H      0.931000    1.872400    0.476200
H     -0.124000    1.939800   -0.953000
H     -0.815300    1.841800    0.681800
H     -0.228200   -0.162700   -2.154000
H     -0.180900   -2.660800   -2.123300
H      0.100100   -3.835800    0.091300
