12
gdb_14661
O     -0.003100    1.472200    0.010400
C      0.004400    0.054400    0.002300
C     -1.360400   -0.447000    0.012500
C     -2.484900   -0.896600    0.020700
C     -3.742600   -1.396900    0.029900
C     -4.870000   -1.850100    0.038200
C     -6.217400   -2.350400    0.048500
O     -6.511600   -3.524600    0.046000
H      0.913600    1.766900    0.004100
H      0.514000   -0.346400   -0.889800
H      0.530900   -0.356500    0.880000
H     -6.991000   -1.556200    0.059900
