17
gdb_7754
C     -0.027400    1.577800   -0.002300
C      0.014800    0.045300    0.031100
C      0.691000   -0.522000   -1.231800
C      0.981400   -2.016700   -1.177200
O      0.969700   -2.750200   -2.143700
N      1.333100   -2.472200    0.077200
C      1.304900   -1.684300    1.233100
C      0.713400   -0.489300    1.259200
H      0.985000    1.996100   -0.023600
H     -0.561300    1.937700   -0.887600
H     -0.536200    1.975300    0.881900
H     -1.027200   -0.314800    0.048600
H      0.104500   -0.331900   -2.133000
H      1.663500   -0.026100   -1.367700
H      1.620200   -3.437800    0.125800
H      1.790500   -2.126700    2.095100
H      0.709300    0.089600    2.175300
