17
gdb_16279
C     -0.060800    1.565200    0.068600
C      0.047200    0.052200   -0.028900
C      1.165000   -0.578100   -0.941200
C      1.719200   -1.303500    0.285700
N      2.091700   -0.256000    1.253400
C      0.666600   -0.702300    1.172800
C     -0.012100   -1.236300    2.299800
C     -0.614600   -1.670900    3.247700
H      0.899500    1.997900    0.360500
H     -0.356900    1.997100   -0.893500
H     -0.811000    1.857800    0.811300
H     -0.921300   -0.393800   -0.271300
H      0.759300   -1.249000   -1.700800
H      1.860800    0.126000   -1.404400
H      2.160800   -2.291400    0.337500
H      2.492600   -0.718300    2.069500
H     -1.141800   -2.058900    4.083700
