13
gdb_1782
O     -0.193900    1.234500   -0.200700
C     -0.150200   -0.139400    0.052600
C     -0.695200   -0.692500    1.329200
C     -1.534000   -0.788500    0.057700
O     -2.625600    0.052500   -0.101100
C     -1.665100   -2.114600   -0.596200
O     -0.850200   -3.000600   -0.485300
H      0.193800    1.702900    0.545500
H      0.648400   -0.678800   -0.450500
H     -0.262000   -1.614700    1.700100
H     -1.071000    0.006100    2.069300
H     -2.268400    0.914300   -0.361500
H     -2.582500   -2.218700   -1.213400
