18
gdb_17077
C      0.017000    1.515900    0.399700
C     -0.087500    0.017000    0.248200
C     -1.271600   -0.639900   -0.316900
O     -0.079100   -0.493100   -1.090800
C      1.422800    2.036500    0.113400
C      1.886000    2.073000   -1.362800
O      2.097600    3.500900   -1.307100
C      1.615200    3.568500    0.047700
H     -0.700100    1.996000   -0.277300
H     -0.275200    1.787400    1.423500
H      0.529300   -0.564700    0.936900
H     -1.518400   -1.660500   -0.027800
H     -2.116200   -0.033000   -0.641200
H      2.146000    1.547200    0.772700
H      2.809700    1.530600   -1.595600
H      1.117000    1.794300   -2.092300
H      0.687900    4.153900    0.126900
H      2.359500    3.996000    0.731100
