16
gdb_9217
C      0.072600    1.381900    0.006900
O     -0.037900   -0.041500    0.152200
C     -1.264400   -0.549600   -0.063900
O     -2.229100    0.116400   -0.344200
C     -1.251200   -2.061900    0.066300
C     -2.650200   -2.630900    0.327600
C     -2.718400   -4.115400    0.056800
O     -3.161500   -4.939100    0.813200
H      1.115200    1.620300    0.216000
H     -0.195000    1.687200   -1.007700
H     -0.586900    1.892100    0.713100
H     -0.848700   -2.456700   -0.877400
H     -0.537600   -2.350500    0.842800
H     -2.985000   -2.438100    1.349800
H     -3.351000   -2.129500   -0.353500
H     -2.319500   -4.412400   -0.943500
