17
gdb_14395
C     -0.051300    1.621900    0.036500
C      0.077700    0.108300   -0.053600
O     -1.002800   -0.540500    0.595600
C      0.446700   -0.724100   -1.243000
C      1.756800   -0.317600   -1.942400
C      2.573300    0.756400   -1.322200
N      2.580500   -0.579700   -0.705300
C      1.280900   -0.838800    0.020700
H      0.275900    2.131800   -0.870300
H     -1.112700    1.849000    0.173600
H      0.498500    2.039400    0.887800
H     -0.902400   -0.395000    1.543300
H     -0.244100   -1.439900   -1.668800
H      2.044400   -0.762500   -2.890100
H      3.516400    0.966900   -1.821600
H      2.158400    1.604300   -0.799100
H      1.289000   -1.616800    0.774100
