20
gdb_9737
C     -0.384100    1.671400    0.100100
C      0.089100    0.220400    0.024400
C      1.062400   -0.054600   -1.157700
C      1.871200   -1.314400   -0.775900
C      1.798800   -1.418600    0.775100
C      0.948700   -0.217100    1.245100
C     -1.101100   -0.716200   -0.095200
O     -2.255700   -0.371300   -0.126800
H      0.472800    2.347000    0.186400
H     -0.955000    1.947600   -0.790600
H     -1.037900    1.829100    0.962300
H      0.544000   -0.153700   -2.116900
H      1.725800    0.813200   -1.246200
H      1.441500   -2.207300   -1.239600
H      2.900900   -1.246800   -1.136800
H      1.335200   -2.363400    1.073700
H      2.790300   -1.404600    1.235500
H      1.594600    0.627000    1.511900
H      0.343000   -0.441700    2.128900
H     -0.840300   -1.798700   -0.155600
