16
gdb_1621
C      0.028400    1.543100    0.130100
C     -0.020400    0.020900    0.016700
O     -1.341200   -0.480500    0.115200
C      0.681200   -0.514000   -1.268600
C      0.784400   -2.050000   -1.262000
C     -0.057800   -0.047300   -2.446500
N     -0.683400    0.327800   -3.344000
H      1.061000    1.905800    0.161500
H     -0.469300    2.016100   -0.723800
H     -0.478600    1.860800    1.044500
H      0.513100   -0.424400    0.864600
H     -1.873800   -0.052500   -0.566900
H      1.687500   -0.079200   -1.316400
H     -0.206900   -2.488100   -1.132200
H      1.220400   -2.423000   -2.191400
H      1.417000   -2.370000   -0.429000
