14
gdb_21196
C     -0.021100    1.447300    0.005200
N      0.038900    0.001200    0.062900
C      0.638500   -0.688000    1.057900
N      0.610500   -2.037900    0.965100
C      1.207500   -2.663200    1.960700
C      1.809000   -1.959500    3.008400
N      1.797800   -0.629800    3.033400
N      1.207800    0.030400    2.050800
H      0.980600    1.888300   -0.026000
H     -0.563700    1.734000   -0.897500
H     -0.537800    1.860300    0.877600
H     -0.375200   -0.555300   -0.665000
H      1.213400   -3.751300    1.934000
H      2.304000   -2.457000    3.834400
