17
gdb_1924
C     -0.084400    1.512000    0.010900
C      0.083300    0.019200    0.035300
C      1.027700   -0.790700   -0.897800
C      0.679500   -1.914800    0.126400
C      0.695800   -0.793600    1.211000
C     -0.829700   -2.031700   -0.111200
O     -1.190400   -0.634400   -0.166100
H      0.877200    2.010200    0.162500
H     -0.496900    1.835100   -0.949900
H     -0.771600    1.832800    0.800100
H      0.713100   -0.916600   -1.937200
H      2.070000   -0.472200   -0.838900
H      1.254300   -2.835800    0.215600
H      1.705700   -0.475300    1.476000
H      0.077300   -0.922100    2.103300
H     -1.087300   -2.526300   -1.055700
H     -1.364700   -2.528800    0.707200
