17
gdb_16160
C      0.004500    1.527800    0.217100
C     -0.003600    0.032200   -0.119300
C     -1.391400   -0.558900   -0.091100
C     -2.062400   -0.988300    1.202900
C     -1.771400   -2.013400    0.144000
O     -2.824600   -2.287100   -0.771600
C     -3.049000   -1.103900   -1.402100
N     -2.316100   -0.105100   -1.118200
H      1.018100    1.936100    0.164200
H     -0.626700    2.080200   -0.484200
H     -0.380300    1.705900    1.226600
H      0.427700   -0.127200   -1.115000
H      0.628500   -0.517000    0.589100
H     -1.431000   -1.033000    2.084300
H     -3.091100   -0.694100    1.382900
H     -1.112100   -2.858600    0.294200
H     -3.859400   -1.119600   -2.120500
