16
gdb_15663
O      0.020800    1.451200   -0.088400
C      0.068000    0.045800   -0.065400
C     -1.338900   -0.572200    0.023600
C     -1.402400   -2.112100    0.001800
C     -2.235400   -2.469100    1.207400
C     -2.580700   -1.405000    1.943800
C     -2.017800   -0.179900    1.344200
O     -2.036300    0.943700    1.811600
H     -0.560500    1.715800    0.640800
H      0.557100   -0.278300   -0.991100
H      0.678600   -0.334200    0.773500
H     -1.935000   -0.144200   -0.791000
H     -1.839000   -2.509900   -0.921200
H     -0.404700   -2.565300    0.083700
H     -2.497000   -3.497000    1.436400
H     -3.149700   -1.399700    2.864300
