18
gdb_9141
C      0.064800    1.557000   -0.128300
C     -0.001700    0.042400    0.140300
C     -1.361400   -0.486900    0.104100
C     -2.492600   -0.899700    0.050200
C     -3.863400   -1.401100    0.048000
C     -3.920200   -2.942600   -0.077200
C     -4.554400   -0.988600    1.350900
O     -5.633100   -0.463900    1.409800
H      1.101200    1.905100   -0.090100
H     -0.343100    1.794800   -1.114300
H     -0.512800    2.109600    0.617500
H      0.613600   -0.489100   -0.597100
H      0.446000   -0.177300    1.118000
H     -4.438500   -0.950300   -0.768500
H     -4.959000   -3.282300   -0.115900
H     -3.409000   -3.262300   -0.988200
H     -3.424800   -3.419400    0.773800
H     -3.969200   -1.237800    2.264800
