17
gdb_5068
C      0.022700    1.524000    0.021500
C      0.017600    0.027500    0.010000
C     -0.007500   -0.798200   -1.100600
N     -0.005500   -0.549200   -2.495700
N     -0.038500   -2.095000   -0.665000
C     -0.021500   -2.131000    0.713600
C      0.010200   -0.826200    1.156800
N     -0.054100   -0.365100    2.490800
H      0.963700    1.942600    0.405500
H     -0.115200    1.922500   -0.988800
H     -0.781500    1.924900    0.650400
H     -0.872100   -0.120100   -2.806500
H      0.747800    0.075800   -2.761800
H     -0.032800   -2.883700   -1.286800
H     -0.046600   -3.062300    1.255600
H      0.146600   -1.102500    3.155600
H      0.595700    0.394600    2.658900
