24
gdb_5808
C      0.235600    1.207200   -0.517400
C      0.127200   -0.130400    0.217100
C      0.460500    0.003400    1.704200
O     -1.212000   -0.610400    0.092400
C     -1.457600   -1.863700   -0.560700
C     -0.781500   -3.024800    0.188100
C     -2.980900   -2.013400   -0.487400
C     -1.006300   -1.824200   -2.030700
H      1.239100    1.633100   -0.413600
H      0.020700    1.084900   -1.582500
H     -0.486300    1.919800   -0.105500
H      0.831800   -0.838400   -0.237900
H      0.404100   -0.967200    2.204600
H      1.468000    0.408100    1.846900
H     -0.254000    0.676700    2.188700
H     -1.108400   -3.043600    1.231900
H     -1.045700   -3.982700   -0.271500
H      0.309800   -2.944300    0.170500
H     -3.466700   -1.176100   -0.995700
H     -3.305100   -2.945700   -0.959300
H     -3.309600   -2.015800    0.555500
H      0.077300   -1.702400   -2.124000
H     -1.275200   -2.755700   -2.539300
H     -1.492100   -0.995300   -2.553800
