18
gdb_14702
C     -0.357100    1.333000   -0.311500
O     -0.318000   -0.074900   -0.326800
C      0.924200   -0.565000   -0.793200
C      0.924300   -2.020400   -0.802700
C      0.950000   -3.222600   -0.828900
C      0.977800   -4.677700   -0.822800
O      0.749300   -5.181000   -2.124800
C      0.761400   -6.589100   -2.155400
H      0.413400    1.758000    0.351900
H     -0.214100    1.758400   -1.317900
H     -1.342200    1.624600    0.058800
H      1.128400   -0.190800   -1.811900
H      1.746500   -0.195700   -0.155000
H      1.951900   -5.030900   -0.440300
H      0.212400   -5.057000   -0.122900
H     -0.024200   -7.020200   -1.514100
H      0.579200   -6.891100   -3.189000
H      1.731300   -6.998500   -1.829900
