20
gdb_11588
C      0.194600    1.479700   -0.074100
C     -0.006000   -0.020400    0.066100
O     -0.202000   -0.538700    1.141800
C      0.055000   -0.831000   -1.222300
C     -0.240400   -2.320400   -1.033800
C     -0.119400   -3.108600   -2.320100
C      1.225400   -3.619700   -2.778100
C      0.174200   -4.585700   -2.286200
H      1.130700    1.698700   -0.599500
H     -0.613900    1.912600   -0.674600
H      0.204400    1.946800    0.911400
H     -0.637900   -0.378500   -1.946200
H      1.052300   -0.687300   -1.662800
H      0.445200   -2.727100   -0.282100
H     -1.244900   -2.436800   -0.610100
H     -0.789800   -2.782000   -3.112500
H      1.457300   -3.604800   -3.837300
H      2.080900   -3.437300   -2.135100
H      0.326700   -5.047400   -1.316100
H     -0.314100   -5.228300   -3.010500
