17
gdb_13691
O      0.049700    1.420900    0.414900
C     -0.074700    0.100500   -0.028600
C     -0.570500   -0.958800    0.924600
C     -1.468100   -0.431400   -0.185400
C     -2.662900    0.434100    0.151700
N     -3.805700   -0.358500    0.586200
C     -4.997600   -0.376300   -0.066200
O     -5.275100    0.279300   -1.048600
H      0.822000    1.471100    0.987600
H      0.656800   -0.197400   -0.779400
H     -0.172400   -1.965100    0.853800
H     -0.789600   -0.624100    1.934400
H     -1.628200   -1.098600   -1.027500
H     -2.388300    1.161800    0.921400
H     -3.000100    0.991700   -0.725000
H     -3.685300   -0.980900    1.369800
H     -5.713600   -1.073400    0.414600
