18
gdb_9672
C     -0.103500    1.639700   -0.010700
C     -0.201500    0.147500    0.214600
C     -1.379500   -0.523800   -0.473500
O     -1.268000   -0.427300   -1.882800
O      1.019400   -0.607000    0.027900
C      0.432300   -0.555400    1.343400
C      1.285800    0.088000    2.408400
O      2.371200   -0.755200    2.758000
H      0.867500    2.033600    0.291000
H     -0.249700    1.849100   -1.074100
H     -0.886200    2.165400    0.546900
H     -1.445600   -1.571800   -0.147400
H     -2.316100   -0.024000   -0.203300
H     -0.433200   -0.849300   -2.118100
H     -0.005000   -1.505600    1.657300
H      1.635000    1.076400    2.082800
H      0.696000    0.223400    3.321700
H      2.866400   -0.919000    1.947300
