11
gdb_11192
O      0.043600    0.030300   -0.062700
C     -0.004400    1.212200   -0.026200
O     -1.124800    1.962600   -0.173200
C     -0.843400    3.333600    0.083500
C      0.705500    3.389700    0.034700
O      1.082000    2.024200    0.180700
C      1.225000    3.940100   -1.226000
N      1.614400    4.404300   -2.208900
H     -1.320300    3.949300   -0.679000
H     -1.219100    3.606200    1.074000
H      1.125300    3.958400    0.867800
