20
gdb_6968
C     -0.204400    1.480300   -0.000800
C     -0.047200   -0.007200   -0.030300
C      0.104100   -0.795600   -1.089900
C      0.226300   -2.228800   -0.667600
O      0.131000   -2.203800    0.752100
C     -0.040900   -0.856200    1.233500
C      1.138400   -0.525500    2.161400
C     -1.372000   -0.787500    1.998000
H      0.594000    1.955800    0.581400
H     -0.182900    1.901000   -1.009300
H     -1.151300    1.773600    0.468200
H      0.138300   -0.477000   -2.125500
H     -0.571300   -2.863400   -1.086900
H      1.184500   -2.680000   -0.972400
H      2.083000   -0.580400    1.613200
H      1.040800    0.476900    2.590700
H      1.174300   -1.246400    2.983400
H     -1.364000   -1.511400    2.818200
H     -1.538300    0.207700    2.423000
H     -2.206900   -1.027900    1.334000
