19
gdb_11304
C     -0.159500    1.522700    0.008900
C      0.124700    0.024200    0.045200
C      0.881600   -0.524300   -1.180900
C      1.435200   -1.876300   -0.705400
N      1.570900   -1.697400    0.744400
C      1.031600   -0.420800    1.206200
C      2.079800   -2.667700    1.538200
O      2.498500   -3.737200    1.139200
H      0.770100    2.096200   -0.081900
H     -0.795800    1.781200   -0.843300
H     -0.671600    1.856000    0.917600
H     -0.824200   -0.521000    0.134000
H      0.247900   -0.620100   -2.065800
H      1.704900    0.154000   -1.435800
H      0.747200   -2.704100   -0.915500
H      2.397700   -2.137000   -1.154400
H      1.830900    0.319000    1.366600
H      0.491500   -0.538200    2.150600
H      2.073600   -2.381100    2.609800
