17
gdb_15354
O     -0.125000    1.330800   -0.712500
C      0.024600    0.118200    0.011200
C     -1.336700   -0.521600    0.107200
C     -1.870300   -1.376000   -1.015700
C     -1.546600   -2.004500    0.315200
C     -0.389100   -2.984500    0.459800
C     -0.793800   -4.357600    0.149900
N     -1.125300   -5.438000   -0.090600
H      0.719600    1.791300   -0.704100
H      0.734800   -0.554800   -0.495100
H      0.420500    0.308300    1.022200
H     -2.059900    0.117300    0.606200
H     -2.909100   -1.276300   -1.307400
H     -1.195400   -1.581200   -1.841200
H     -2.395800   -2.266600    0.938900
H      0.438900   -2.718200   -0.204500
H      0.009500   -2.968800    1.481600
