18
gdb_16562
C     -0.004600    1.542100   -0.043800
O      1.360800    1.981600   -0.081700
C      2.178500    0.827400    0.169300
C      1.422900   -0.287200   -0.562300
C      0.024600   -0.005800    0.019100
C     -0.027800   -0.516600    1.473200
C      1.202800   -0.099200    2.244600
C      2.228500    0.517300    1.656800
H     -0.517500    1.975800    0.824500
H     -0.502800    1.905800   -0.950700
H      3.169300    1.047000   -0.233700
H      1.452400   -0.122200   -1.643400
H      1.794500   -1.290300   -0.339900
H     -0.786400   -0.444500   -0.567400
H     -0.927800   -0.135300    1.974800
H     -0.124500   -1.612600    1.488900
H      1.221700   -0.317300    3.309900
H      3.094700    0.838100    2.227600
