15
gdb_10997
C     -0.038200    1.548400    0.033400
C      0.099300    0.049400    0.013000
N     -0.777800   -0.815000    0.851600
C      0.700700   -0.766500    1.090700
C      1.431400   -1.921300    0.424100
O      2.120900   -2.750300    0.967400
C      1.156100   -1.778900   -1.036300
C      0.437100   -0.673500   -1.265600
H      0.863000    2.031200   -0.358400
H     -0.885900    1.873200   -0.580700
H     -0.199800    1.913200    1.052500
H     -1.217100   -0.233300    1.567700
H      1.075400   -0.357200    2.021300
H      1.492300   -2.506700   -1.763200
H      0.084100   -0.330900   -2.232300
