16
gdb_5749
C     -0.245100    1.558500    0.073600
C     -0.022100    0.051900    0.008700
C      0.700700   -0.503300   -1.283700
N      1.766700   -0.988600   -0.379500
C      2.930200   -1.609200   -0.045200
N      3.096600   -1.547900    1.265000
C      2.011700   -0.874600    1.794100
C      1.178100   -0.524800    0.760900
H      0.678200    2.103200   -0.146800
H     -1.012300    1.873000   -0.641900
H     -0.577800    1.854600    1.073100
H     -0.958200   -0.478700    0.210000
H      0.181900   -1.302600   -1.818200
H      1.042300    0.259400   -1.988600
H      3.602700   -2.072600   -0.749400
H      1.925400   -0.701800    2.854900
