13
gdb_20471
C      0.070400    1.538000    0.005500
O      1.198900    0.665800   -0.041200
C     -0.099100    0.072100    0.019900
C     -0.411000   -0.670000    1.257300
C      0.350800   -0.790000    2.378700
O     -0.269800   -1.548500    3.292200
N     -1.493100   -1.965600    2.780700
C     -1.562400   -1.444500    1.581400
H     -0.056500    2.090300    0.934800
H     -0.128700    2.094800   -0.909000
H     -0.420700   -0.402500   -0.907700
H      1.325100   -0.412700    2.644000
H     -2.438400   -1.635600    0.977100
