16
gdb_18501
O     -0.216600    0.026500   -0.170900
C      0.036800    1.191300    0.002200
C      1.392400    1.822700   -0.210600
C      1.356300    2.945300   -1.252300
C      0.552400    4.267400   -0.932800
C      1.868000    5.041000   -1.070200
O      2.780000    4.492300   -0.109200
C      2.625400    3.812900   -1.358100
H     -0.755800    1.900700    0.337600
H      1.725700    2.258500    0.741000
H      2.096500    1.037400   -0.502700
H      1.068800    2.554000   -2.232700
H     -0.182500    4.505800   -1.704600
H      0.083600    4.338300    0.052000
H      2.035800    6.065500   -1.380500
H      3.521100    3.640800   -1.944000
