18
gdb_10985
C     -0.009300    1.528900    0.041400
C     -0.025500    0.021400   -0.011800
C      0.377000   -0.820200   -1.266200
C     -0.372100   -1.925700   -0.497500
O      0.417000   -2.125600    0.696900
C      0.735600   -0.757600    1.068200
C     -1.358000   -0.831700   -0.032500
O     -2.084800   -1.044000    1.139300
H      1.012600    1.923400   -0.000200
H     -0.566900    1.959000   -0.796600
H     -0.469300    1.889000    0.968500
H     -0.136700   -0.502500   -2.175900
H      1.440100   -0.982400   -1.455000
H     -0.660600   -2.891400   -0.909000
H      1.820000   -0.602400    1.037400
H      0.372200   -0.550100    2.081400
H     -2.042200   -0.488400   -0.811800
H     -1.579500   -1.686500    1.655200
