17
gdb_2098
C     -0.076700    1.545400   -0.003500
C      0.015100    0.013500    0.012100
C      0.735100   -0.513600   -1.236100
O      0.993500   -1.903300   -1.146200
C      1.901600   -2.222100   -0.110400
C      1.616200   -1.493200    1.173700
C      0.738300   -0.495200    1.236300
H      0.920400    1.999200    0.003800
H     -0.604300    1.901000   -0.895100
H     -0.617500    1.914600    0.873700
H     -1.008500   -0.389600    0.011300
H      0.124900   -0.373800   -2.133600
H      1.676800    0.045300   -1.376200
H      1.823700   -3.306000    0.039200
H      2.941900   -2.022200   -0.430800
H      2.162700   -1.823900    2.053200
H      0.532100    0.000700    2.182500
