16
gdb_13912
N      0.945500    1.390000   -0.388300
C      0.543700    0.008700   -0.329400
C     -0.828200   -0.356200    0.134100
N     -1.744300    0.743700    0.361700
H     -1.759500    1.301300   -1.283000
H     -2.669300    0.411800    0.610800
H     -1.404300    1.346000    1.105200
C     -0.427200   -0.670800   -1.314500
C     -0.939800    0.082800   -2.506600
O     -0.776100   -0.316500   -3.630600
O     -1.549000    1.259000   -2.254900
H      1.849800    1.456200   -0.844700
H      0.302700    1.932900   -0.957700
H      1.345300   -0.630800    0.025200
H     -0.921900   -1.215800    0.794900
H     -0.220800   -1.707800   -1.549800
