20
gdb_11302
C     -0.139000    1.533800   -0.026400
C      0.045900    0.017400   -0.013400
C      0.853500   -0.547800   -1.194300
C      1.247500   -1.951900   -0.719200
C      1.631600   -1.751500    0.772200
C      0.796200   -0.515400    1.236200
C      1.329100   -2.980000    1.593500
O      2.136900   -3.654200    2.177800
H      0.830500    2.045300   -0.006100
H     -0.671500    1.862400   -0.925100
H     -0.712700    1.874600    0.842100
H     -0.947100   -0.452000   -0.039600
H      0.290000   -0.555000   -2.132500
H      1.753200    0.060800   -1.356600
H      0.379800   -2.621300   -0.794000
H      2.057400   -2.407700   -1.293900
H      2.702300   -1.552200    0.862800
H      1.467900    0.248300    1.641000
H      0.098200   -0.771400    2.041200
H      0.240700   -3.237500    1.620100
