16
gdb_9650
C      0.154700    1.227800   -0.442900
N     -0.182600    0.187200    0.520600
C     -1.457500   -0.416200    0.308100
C     -1.751800   -1.373300   -0.837100
C     -1.599300   -1.894900    0.587400
O     -0.413200   -2.548200    0.933600
C     -2.776200   -2.370500    1.283200
N     -3.716300   -2.770700    1.825200
H      1.151800    1.615200   -0.217600
H      0.138600    0.893100   -1.494300
H     -0.553700    2.058400   -0.349600
H      0.533900   -0.527500    0.564900
H     -2.295200    0.199800    0.626500
H     -2.738100   -1.384100   -1.287000
H     -0.928700   -1.626400   -1.497200
H     -0.428600   -3.433000    0.550900
