20
gdb_10526
C     -0.477000    1.085400    2.848800
C     -0.257800   -0.412000    2.715700
O      0.528000   -0.639000    1.547900
C      0.908100   -1.976400    1.326600
C     -0.217600   -2.820100    0.768800
O     -0.758400   -2.237900   -0.402800
C      2.299200   -2.141000    0.799400
C      1.965800   -2.578100    2.213400
H     -1.000100    1.479100    1.972400
H     -1.078000    1.303700    3.736600
H      0.479700    1.607700    2.938000
H      0.263200   -0.811000    3.597700
H     -1.222800   -0.934600    2.642900
H      0.157600   -3.814000    0.503100
H     -0.998300   -2.963100    1.534700
H     -0.762200   -1.286100   -0.243700
H      2.474500   -2.898500    0.043800
H      2.884800   -1.236100    0.688100
H      2.345200   -1.964000    3.022400
H      1.916400   -3.638700    2.437200
