16
gdb_18850
O     -0.001500    0.042800   -0.167800
C     -0.034200    1.228600    0.018900
C     -1.136400    2.233400    0.050100
C     -0.773100    3.389400    0.997900
C      0.181700    3.115500    2.161000
C      1.497900    2.664300    1.471900
C      1.064700    2.323000    0.035300
C     -0.081400    3.317800   -0.312000
H     -2.150900    2.102000   -0.306900
H     -1.583600    4.098500    1.129400
H      0.329500    4.020200    2.758300
H     -0.215700    2.346700    2.830900
H      2.228400    3.480100    1.456300
H      1.965300    1.810500    1.970000
H      1.872300    2.169500   -0.680100
H     -0.123000    4.020600   -1.131200
