16
gdb_18200
N     -0.542700   -0.925800   -0.954300
C     -0.279200    0.097100   -0.486200
C      0.037600    1.384400    0.136100
C     -0.377300    1.453800    1.636100
C      0.641300    2.446500    2.230300
C      1.859800    2.308800    1.331000
C      2.319400    0.943200    0.975500
N      1.479500    1.705100    0.033300
H     -0.489400    2.164100   -0.425900
H     -1.413100    1.777400    1.751800
H     -0.292900    0.469500    2.101300
H      0.264000    3.473300    2.173800
H      0.859900    2.236500    3.281300
H      2.555400    3.140900    1.277100
H      3.335800    0.787000    0.629200
H      1.888900    0.090800    1.494400
