14
gdb_9198
N      0.226600    1.119200   -0.476900
C     -0.140200   -0.006400    0.357900
C     -1.513900   -0.603600    0.075600
O     -2.291500   -0.219600   -0.755600
O     -1.759500   -1.652200    0.912100
C     -3.016500   -2.308400    0.728800
C     -2.926000   -3.370700   -0.278900
N     -2.861400   -4.217800   -1.060900
H      0.205400    0.837400   -1.452800
H     -0.478200    1.846300   -0.394500
H      0.598000   -0.810000    0.253900
H     -0.113000    0.282100    1.415400
H     -3.278600   -2.743300    1.695500
H     -3.779500   -1.587500    0.424100
