14
gdb_3415
N     -0.093900    1.239800    0.256700
C     -0.043200    0.004800   -0.001600
O      1.115500   -0.693800   -0.245600
C      0.830200   -1.968000   -0.849800
C     -0.646300   -2.227600   -0.613500
C     -1.101800   -2.145900    0.810900
C     -1.200400   -0.922700   -0.083300
H      0.840400    1.650200    0.214100
H      1.058200   -1.912800   -1.921500
H      1.490000   -2.709700   -0.388400
H     -1.189000   -2.832700   -1.328700
H     -2.037800   -2.629100    1.065700
H     -0.358400   -2.146500    1.601800
H     -2.166900   -0.517000   -0.346100
