15
gdb_13556
O     -0.937400   -0.305100   -0.220300
C      0.379900   -0.766600   -0.517100
C      1.145600    0.280400   -1.221200
N      1.743400    1.116900   -1.748400
C      1.144600   -1.270400    0.703000
C      0.857300   -0.719000    2.090500
C      0.435700   -2.121600    1.728300
O     -0.898400   -2.489100    1.591600
H     -0.868200    0.556500    0.207600
H      0.232400   -1.598800   -1.215400
H      2.176500   -1.519900    0.473400
H      1.691500   -0.559100    2.764200
H      0.058600    0.008900    2.195200
H      1.001200   -2.940500    2.161100
H     -1.348100   -1.798000    1.086200
