14
gdb_5540
C      0.281600    1.375200    0.177500
N     -0.419900    0.252500   -0.456700
C      0.340200   -0.608400   -1.229100
C      0.732600   -1.908000   -1.138900
O      0.506700   -2.760500   -0.111800
N      1.401600   -2.287100   -2.282600
C      1.410500   -1.213300   -3.009800
O      0.782300   -0.157500   -2.459400
H      1.070900    1.061000    0.876600
H      0.735700    1.995600   -0.598900
H     -0.446400    1.987700    0.715500
H     -0.971500   -0.273800    0.208100
H      0.879000   -3.611000   -0.371800
H      1.869500   -1.065100   -3.973900
