17
gdb_21199
C      0.081300    1.319500    0.147600
N     -0.122900   -0.005600   -0.407700
C     -1.320600   -0.657200   -0.154900
N     -1.376800   -1.990200   -0.181700
N     -2.684300   -2.283500    0.039900
C     -3.103900   -3.663000    0.077000
C     -3.433200   -1.174300    0.214400
C     -2.592500   -0.085300    0.099800
H      1.086100    1.661700   -0.111800
H     -0.628400    2.025900   -0.295900
H     -0.033100    1.368300    1.242500
H      0.665600   -0.627800   -0.299800
H     -4.179800   -3.700900    0.257800
H     -2.881600   -4.155700   -0.874300
H     -2.585900   -4.201300    0.876800
H     -4.493500   -1.236800    0.405200
H     -2.860100    0.954500    0.180400
