22
gdb_15419
C     -0.099300    1.553700   -0.446600
C     -0.009300    0.162700    0.192700
C     -1.351000   -0.544800    0.218000
C     -1.832000   -1.362100   -0.956900
C     -1.515600   -2.042700    0.353100
C     -0.347400   -2.984600    0.470300
O     -0.765300   -4.269800    0.051100
C      0.245100   -5.238300    0.179600
H      0.874400    2.053600   -0.450000
H     -0.450100    1.487900   -1.481800
H     -0.800800    2.193900    0.099700
H      0.724100   -0.438300   -0.356600
H      0.377500    0.257400    1.216200
H     -2.122100    0.031800    0.725400
H     -2.867100   -1.287100   -1.271000
H     -1.132100   -1.518800   -1.772900
H     -2.370800   -2.368400    0.939000
H      0.501800   -2.644500   -0.144800
H      0.011400   -3.029300    1.514100
H      1.128000   -4.996600   -0.434800
H      0.579600   -5.348200    1.224200
H     -0.167900   -6.191700   -0.159600
