20
gdb_12564
C      0.012400    1.556600    0.084500
C     -0.008700    0.033900    0.002900
C      0.662100   -0.482000   -1.283200
C      0.276100   -1.917800   -1.689600
O     -0.068200   -2.783200   -0.621100
C      0.831900   -2.809900    0.471800
C      0.454300   -1.771000    1.527300
O      0.696600   -0.432200    1.154300
H      1.040800    1.928000    0.026300
H     -0.562200    1.997700   -0.735300
H     -0.416400    1.889800    1.033000
H     -1.050500   -0.321500    0.047400
H      0.418400    0.179800   -2.122900
H      1.743000   -0.398800   -1.125500
H     -0.618300   -1.900300   -2.321000
H      1.089500   -2.357100   -2.289700
H      0.753300   -3.808300    0.919900
H      1.872700   -2.669300    0.144500
H     -0.609400   -1.918400    1.777300
H      1.045200   -1.939500    2.435200
