16
gdb_20802
C     -0.154700    1.576200    0.042900
C      0.000800    0.044800    0.012700
C      0.713200   -0.470800   -1.202100
C      2.049100   -0.735800   -1.366900
N      3.121100   -0.696300   -0.503200
O      2.303900   -1.178700   -2.604200
N      1.092700   -1.227700   -3.330800
C      0.191200   -0.803900   -2.480800
H      0.820400    2.074300    0.022200
H     -0.719100    1.928600   -0.825900
H     -0.682000    1.900700    0.945900
H      0.532500   -0.285100    0.914300
H     -0.991700   -0.416900    0.072300
H      3.059800    0.014700    0.210300
H      4.018000   -0.696200   -0.968600
H     -0.839800   -0.752600   -2.807200
