15
gdb_820
C      0.388300    1.362400   -0.016800
C     -0.271900    0.012300    0.037000
N     -0.615100   -0.576100    1.119300
O     -0.272400    0.172500    2.254200
C     -0.540700   -0.719700   -1.231800
C      0.194400   -1.993500   -1.509300
N     -1.240200   -2.005000   -1.213900
H      1.340000    1.341100    0.523700
H      0.572200    1.674300   -1.046600
H     -0.235100    2.112100    0.480700
H     -0.615700   -0.372200    2.970300
H     -0.789600   -0.078200   -2.074700
H      0.461200   -2.250700   -2.531000
H      0.887900   -2.335600   -0.745800
H     -1.384300   -2.261200   -0.238500
