19
gdb_16592
C      0.036600    1.718100   -0.380100
C      0.044700    0.202900   -0.413100
C      0.572700   -0.673100   -1.480200
C      1.899800   -0.209400   -2.061200
O      1.836800    1.011200   -2.774200
C      2.463400   -0.250600   -0.603800
C      3.153400    0.943500    0.034300
N      1.138800   -0.723200   -0.050900
H      0.775500    2.160200   -1.044100
H     -0.949500    2.065100   -0.708300
H      0.189800    2.084800    0.640600
H     -0.866700   -0.208500    0.021800
H     -0.004900   -1.496300   -1.889500
H      2.359200   -0.987900   -2.682700
H      2.699700    1.173000   -3.168600
H      3.128500   -1.116200   -0.513900
H      2.651800    1.890300   -0.162500
H      3.205500    0.801500    1.118900
H      4.181400    1.023400   -0.337600
