19
gdb_9671
C      0.070600    1.616200   -0.128400
C     -0.097500    0.131800    0.128200
C     -1.340200   -0.478600   -0.503200
O     -1.284900   -0.527200   -1.921600
N      1.140300   -0.667900    0.081000
C      0.409300   -0.543200    1.359000
C      1.189100    0.119500    2.472200
O      2.271100   -0.701100    2.880000
H      1.022800    1.984900    0.253600
H      0.062600    1.817800   -1.206200
H     -0.740200    2.192500    0.331300
H     -1.443200   -1.520300   -0.180600
H     -2.235000    0.062600   -0.156600
H     -1.349800    0.371500   -2.258400
H      0.961100   -1.567300   -0.359300
H     -0.150600   -1.418500    1.687500
H      1.541400    1.112600    2.161600
H      0.552600    0.253600    3.353400
H      2.774300   -0.884400    2.077300
