10
gdb_23629
F      0.089100    0.087100    0.002100
C     -0.060300    1.385200    0.011500
N     -1.198400    1.925300    0.029700
C     -1.271300    3.346100    0.038400
O     -2.332400    3.919700    0.056000
C      0.033200    4.032600    0.024400
C      1.162000    3.322700    0.005200
O      1.157000    1.951700   -0.002100
H      0.056000    5.113900    0.029900
H      2.173100    3.705600   -0.006500
