24
gdb_8237
C     -0.191500    1.503200   -0.129700
C      0.058500   -0.007500   -0.017500
C      0.803000   -0.522700   -1.256900
C      0.823400   -0.383700    1.266500
C      0.075700   -0.127400    2.569000
C     -1.196000   -0.966200    2.895600
C     -0.732100   -1.024700    4.375500
C      0.695400   -0.641600    3.900800
H      0.756800    2.054100   -0.156100
H     -0.737700    1.742600   -1.048300
H     -0.776700    1.888200    0.710500
H     -0.919300   -0.509600    0.018100
H      1.796100   -0.063500   -1.335400
H      0.942800   -1.608200   -1.216800
H      0.256500   -0.287800   -2.176600
H      1.080700   -1.451400    1.221400
H      1.781200    0.158000    1.283100
H     -0.156200    0.938700    2.671900
H     -2.173800   -0.527000    2.681700
H     -1.149000   -1.952600    2.420800
H     -1.186700   -0.229500    4.973600
H     -0.854200   -1.969900    4.909800
H      1.314200   -1.529400    3.730500
H      1.267000    0.066500    4.506600
