20
gdb_9408
C      0.075600    1.376500    0.078600
O      0.028200   -0.029800    0.069100
C     -1.285700   -0.535200   -0.013300
C     -1.201300   -2.057900   -0.018900
C     -2.574600   -2.761500   -0.012800
C     -3.387700   -2.519000   -1.298200
C     -2.348600   -4.253300    0.147000
O     -2.730500   -4.921000    1.072100
H      1.126700    1.668200    0.141800
H     -0.358200    1.807500   -0.838000
H     -0.462800    1.798600    0.942100
H     -1.887300   -0.189600    0.846000
H     -1.779900   -0.159200   -0.924400
H     -0.619900   -2.375600   -0.893500
H     -0.630300   -2.361200    0.866000
H     -3.151800   -2.436800    0.860300
H     -3.606700   -1.457300   -1.436400
H     -2.838300   -2.864700   -2.181300
H     -4.342200   -3.052900   -1.263800
H     -1.775800   -4.713900   -0.694700
