14
gdb_10290
C      0.683900    0.549900   -0.064900
O     -0.284600   -0.159900   -0.827600
C     -1.488500   -0.381600   -0.124200
C     -2.558100   -0.588300   -1.109900
N     -3.399700   -0.764900   -1.880400
C     -1.439500   -1.613900    0.833000
N     -0.496900   -2.518700    0.480200
O     -2.192900   -1.700100    1.775500
H      1.554900    0.675400   -0.710100
H      0.306800    1.538500    0.228400
H      0.977800   -0.003800    0.836700
H     -1.759800    0.477700    0.504200
H      0.047900   -2.381100   -0.354800
H     -0.434500   -3.384100    0.990500
