11
gdb_858
N     -0.021100    1.308200    0.160100
C     -0.053200   -0.056100    0.039900
N     -1.104400   -0.816900   -0.071600
C     -0.572400   -2.096600   -0.074800
O     -1.371900   -3.174400   -0.176500
C      0.774500   -2.056600    0.027600
O      1.118700   -0.701800    0.104300
H      0.834700    1.741200   -0.153700
H     -0.856800    1.760900   -0.177500
H     -2.275400   -2.839800   -0.223500
H      1.576000   -2.768600    0.058600
