14
gdb_3723
C     -0.125300    1.526900    0.057400
C      0.140800    0.015000   -0.008900
C      0.799200   -0.507900    1.227500
N      2.009900   -1.049000    1.222400
N      2.193100   -1.361600    2.529500
C      1.112600   -1.004300    3.249700
N      0.207800   -0.459900    2.463100
H      0.811800    2.086100    0.142000
H     -0.644800    1.867800   -0.843100
H     -0.743500    1.769900    0.925700
H     -0.809900   -0.512900   -0.149100
H      0.777700   -0.228100   -0.863900
H      3.048600   -1.800600    2.826500
H      1.033000   -1.158600    4.315500
