14
gdb_10477
C     -0.021300    1.452700   -0.006800
C      0.008300   -0.001200    0.010300
C      0.027300   -1.204700    0.019100
C      0.068400   -2.646600    0.025400
C     -0.593500   -3.398500    1.125500
O     -1.203800   -3.318800   -0.149600
C      1.184900   -3.254400   -0.662200
C      2.121100   -3.751200   -1.227400
H      0.749300    1.854100   -0.673600
H     -0.991200    1.820400   -0.358900
H      0.150600    1.867100    0.992500
H     -0.193900   -4.372600    1.402600
H     -1.073700   -2.829900    1.920000
H      2.945400   -4.190100   -1.733300
