13
gdb_19336
N      0.091100   -1.143200   -0.123200
C      0.065300    0.012500   -0.044000
C      0.021500    1.425800    0.075600
N      0.202500    2.343400   -1.084100
C      1.143100    2.417400    0.038000
C      0.482100    3.200500    1.218600
N     -0.881300    3.604200    0.804700
C     -0.628500    2.227000    1.261700
H      0.650900    1.799800   -1.822900
H      2.201300    2.224400   -0.076000
H      1.017700    3.689100    2.020400
H     -1.294300    4.103100    1.593000
H     -1.144100    1.770000    2.094700
