19
gdb_2047
C     -0.035600    1.533300    0.055500
C      0.060400    0.018700    0.046500
C     -1.179300   -0.649000   -0.529900
C      1.339300   -0.727300   -0.251300
C      2.580800   -0.025100    0.313800
C      1.943700   -0.074100    1.740700
C      0.712100   -0.775500    1.153400
H      0.852000    2.016700    0.469000
H     -0.175100    1.916900   -0.962200
H     -0.896300    1.861600    0.650400
H     -1.351800   -0.331800   -1.565100
H     -1.086800   -1.739900   -0.526200
H     -2.072500   -0.387400    0.049500
H      1.363700   -1.502100   -1.010100
H      3.477200   -0.645900    0.247500
H      2.818300    0.961000   -0.098200
H      2.508900   -0.720300    2.416100
H      1.770700    0.880500    2.248100
H      0.183800   -1.592700    1.632600
