16
gdb_21096
C     -0.047400    1.423900   -0.026400
N     -0.034000   -0.018100    0.048600
N     -0.100900   -0.777400   -1.077700
N     -0.088500   -2.021100   -0.701800
C      0.005200   -2.099000    0.656400
C      0.038600   -3.397800    1.392400
C      0.045100   -0.807100    1.148100
N      0.060400   -0.279500    2.440700
H      0.941400    1.848000    0.182600
H     -0.340800    1.693800   -1.040800
H     -0.768000    1.828900    0.689800
H      0.760500   -3.378700    2.217800
H     -0.937200   -3.666800    1.815500
H      0.331600   -4.196000    0.706700
H      0.103900   -1.010000    3.139400
H      0.814100    0.379200    2.603600
