20
gdb_16568
C     -0.034400    1.558700   -0.029800
C      1.458800    2.011300   -0.041000
C      2.271400    0.694100    0.015700
C      1.339500   -0.300700   -0.701800
C      0.022000    0.012100    0.032500
C      0.165800   -0.464800    1.486400
O      1.200300    0.229300    2.169600
C      2.436600    0.223600    1.469500
H     -0.583800    1.978200    0.817300
H     -0.546000    1.881200   -0.941700
H      1.692600    2.559800   -0.958400
H      1.694200    2.668800    0.800200
H      3.259000    0.781600   -0.447800
H      1.263600   -0.076600   -1.771800
H      1.656600   -1.343900   -0.596300
H     -0.854200   -0.465400   -0.417100
H     -0.746900   -0.270500    2.059400
H      0.353500   -1.552500    1.505500
H      2.884800   -0.785100    1.486600
H      3.095500    0.894400    2.030700
