18
gdb_18357
O      0.131500    1.412500   -0.016400
C      0.074100   -0.004300   -0.021500
C      0.582300   -0.594900    1.337000
C     -0.689000   -0.653700    2.185700
C     -1.737700   -0.716300    1.368800
C     -3.180400   -0.318300    1.150400
C     -2.685100    0.288500   -0.218300
C     -1.374300   -0.560500   -0.082400
H     -0.302000    1.711900    0.791500
H      0.691700   -0.311900   -0.869700
H      1.034500   -1.586300    1.194400
H      1.358800    0.050000    1.762500
H     -0.691600   -0.576400    3.266800
H     -3.846500   -1.172600    0.988300
H     -3.643300    0.350600    1.880700
H     -3.311200    0.100700   -1.093000
H     -2.478800    1.358200   -0.145600
H     -1.426100   -1.484200   -0.670600
