19
gdb_19691
C     -0.092300    1.515500   -0.013700
C      0.074600   -0.004300    0.103100
C      0.712900   -0.603100   -1.141000
C      0.905700   -2.121800   -1.345000
C     -0.529800   -2.700100   -1.227900
C     -0.844900   -1.857800   -2.463400
C      0.581500   -1.808900   -2.858900
N     -0.083200   -0.552900   -2.421400
H      0.877700    2.012600   -0.125200
H     -0.696900    1.769200   -0.889400
H     -0.581000    1.931000    0.872600
H      0.703400   -0.249700    0.969800
H     -0.902000   -0.464000    0.286200
H      1.652600   -0.079900   -1.356800
H      1.760400   -2.660200   -0.938800
H     -0.545900   -3.762500   -1.485200
H     -1.086800   -2.540800   -0.299700
H     -1.729900   -1.863400   -3.085600
H      1.105500   -1.932900   -3.797300
