14
gdb_5786
C      0.214300    1.593200    0.083400
C      1.243100    0.573000   -0.227400
N     -0.141900    0.163600    0.064000
C     -0.369300   -0.444500    1.307800
C     -1.264200   -1.426500    1.576100
O     -1.166200   -1.733900    2.907200
C     -0.204900   -0.908300    3.371300
N      0.308500   -0.121700    2.485200
H      0.275300    2.074400    1.054900
H     -0.237100    2.181300   -0.710000
H      1.558100    0.401200   -1.252200
H      1.988300    0.375900    0.537500
H     -1.983500   -1.972200    0.993000
H      0.036400   -0.985500    4.420100
