18
gdb_13437
C      0.253400    1.526200    0.275200
C      0.173300    0.033900    0.035600
C      0.663900   -0.617500   -1.249100
C      1.272300    0.170600   -2.390100
C      1.409900   -0.837500    0.036200
O      2.683500   -0.222400    0.124400
C      3.161200   -0.007400    1.368200
O      4.227800    0.490000    1.569300
H      1.184200    1.956300   -0.099000
H     -0.576900    2.042600   -0.217500
H      0.192700    1.751800    1.345600
H     -0.701000   -0.434900    0.480800
H      0.081100   -1.475500   -1.574400
H      1.954300    0.945800   -2.038200
H      1.844400   -0.492000   -3.047400
H      0.490700    0.646000   -2.991800
H      1.381000   -1.815900    0.507700
H      2.464900   -0.345900    2.159000
