18
gdb_19009
C     -0.044900    1.502400    0.020600
C     -0.007900    0.013400   -0.032300
C     -0.048700   -0.837200   -1.063700
C      0.028500   -2.211000   -0.420300
C     -0.834800   -2.153400    0.895500
C      0.177800   -3.078900    1.608400
C      1.043100   -2.102400    0.779200
C      0.092200   -0.913000    1.177800
H      0.855800    1.909600    0.498700
H     -0.121400    1.937200   -0.980000
H     -0.896900    1.862100    0.612300
H     -0.120100   -0.623200   -2.121500
H      0.015000   -3.113100   -1.034000
H     -1.926800   -2.170600    0.954700
H      0.242800   -2.991900    2.696900
H      0.187200   -4.128400    1.299800
H      2.133400   -2.060300    0.703200
H      0.143200   -0.493700    2.184900
