20
gdb_9800
C     -0.284400    1.470200    0.038700
C      0.014900   -0.036600   -0.005300
C      0.795800   -0.389800   -1.259400
O      0.497700   -1.268700   -2.027100
C      0.768300   -0.541600    1.236200
C      2.070100    0.158200    1.588400
C     -0.088400   -1.035400    2.380300
C      0.667400   -2.021500    1.521500
H      0.629100    2.068300   -0.042600
H     -0.944900    1.761600   -0.783600
H     -0.775200    1.734500    0.980000
H     -0.925100   -0.594100   -0.074800
H      1.706100    0.231800   -1.434200
H      1.916800    1.222200    1.797600
H      2.512100   -0.290200    2.483400
H      2.811400    0.078200    0.785600
H      0.265700   -0.859900    3.390900
H     -1.167300   -0.987900    2.275300
H      0.102800   -2.635300    0.828000
H      1.530800   -2.518300    1.951000
