19
gdb_13601
C      0.030900    1.438900    0.138500
N      0.135600    0.003200   -0.022500
C      0.133400   -0.604500   -1.247200
O      0.033900    0.024100   -2.291900
C      0.259800   -2.095000   -1.194400
C     -0.244100   -2.889300   -2.382900
C      1.228600   -2.826900   -2.126400
C      2.174100   -2.101600   -3.057700
H     -0.093500    1.866700   -0.856900
H     -0.833200    1.708900    0.756100
H      0.933100    1.860500    0.597100
H      0.240200   -0.569300    0.798000
H      0.130300   -2.540000   -0.212100
H     -0.783200   -3.809600   -2.187800
H     -0.628200   -2.285200   -3.197800
H      1.653600   -3.716700   -1.667500
H      1.716600   -1.191800   -3.449300
H      3.100100   -1.824300   -2.541600
H      2.444600   -2.748900   -3.899300
