17
gdb_8058
C     -0.033000    1.492300    0.103500
C      0.034100   -0.012600    0.047500
C      0.545200   -0.936400   -1.080900
N      0.082200   -1.963000   -0.029400
C      0.764800   -1.011800    0.978100
C     -1.145800   -1.055100    0.107800
C     -2.024300   -1.165100    1.322100
O     -1.797200   -1.804300    2.318800
H      0.967800    1.925200   -0.000800
H     -0.657100    1.890900   -0.703500
H     -0.448500    1.836300    1.056500
H     -0.019500   -0.977500   -2.017000
H      1.623100   -0.967700   -1.261400
H      1.856000   -1.039300    0.914300
H      0.418200   -1.140900    2.001500
H     -1.787800   -1.068500   -0.783000
H     -2.963900   -0.570300    1.228000
