10
gdb_23643
F      0.036200    0.094000    0.003100
C     -0.020800    1.405400    0.010800
N     -1.195900    1.936000    0.029700
C     -1.278200    3.314100    0.037600
O     -2.284400    3.973500    0.056300
N     -0.003500    3.969100    0.024500
C      1.150300    3.287300    0.005100
N      1.209900    1.986700   -0.002800
H     -0.023100    4.980000    0.030500
H      2.070300    3.866500   -0.004000
