10
gdb_2501
O     -0.219400   -0.047700    0.003300
C     -0.115700    1.141400    0.008400
N      1.130000    1.846700    0.001300
C      1.098700    3.253400    0.009100
O      0.096000    3.913500    0.021400
C      2.397000    1.213300   -0.013400
O      2.591400    0.035800   -0.022500
H     -0.950400    1.857100    0.018700
H      2.114300    3.688300    0.002600
H      3.206600    1.968900   -0.016500
