20
gdb_17431
C     -0.008400    1.594400    0.034000
C      0.097100    0.073600    0.030500
C      1.135200   -0.649300   -0.825800
C      2.422800   -0.782100    0.005700
C      2.163700   -0.145400    1.366900
C      0.715500   -0.707200    1.242300
C     -0.108000   -1.011400    2.466000
C      1.284000   -1.755300    0.187300
H      0.964800    2.076300    0.162700
H     -0.426500    1.952200   -0.913800
H     -0.669100    1.945500    0.835400
H     -0.889100   -0.362200   -0.174500
H      1.164100   -0.738700   -1.905100
H      3.374800   -0.966200   -0.476000
H      2.713600   -0.670100    2.154700
H      2.292600    0.935100    1.496500
H     -0.362700   -0.090100    3.004300
H     -1.046800   -1.511700    2.202900
H      0.434300   -1.660600    3.162400
H      1.223000   -2.830700    0.100900
