12
gdb_3431
O      0.022500    0.014700    0.206000
C      0.031100    1.192500    0.001300
O     -1.109900    1.918500   -0.186100
C     -0.834500    3.259700   -0.628000
C      0.666900    3.440100   -0.509400
N      1.117300    3.226100    0.871800
C      1.208800    2.119100   -0.121800
H     -1.173600    3.360400   -1.664700
H     -1.393500    3.950100    0.009200
H      1.191400    4.125000   -1.165100
H      2.049700    3.619100    0.986600
H      2.169500    1.720300   -0.418800
