11
gdb_21379
N     -0.042700    1.352200    0.010100
C      1.289500    1.718500   -0.000700
N      2.110800    0.699300   -0.014700
N      1.256500   -0.362100   -0.012400
N      1.394000   -1.706700   -0.021700
C      0.109800   -2.071800   -0.011000
N     -0.836100   -1.076100    0.004000
C     -0.049100   -0.018000    0.002400
H     -0.840900    1.962400    0.021700
H      1.609700    2.747300    0.002100
H     -0.163200   -3.116400   -0.014400
