16
gdb_11057
O     -0.061100    1.381800    0.010900
C      0.000900   -0.015700   -0.024100
C      0.649200   -0.709600    1.223700
O      0.168200   -2.051400    1.161300
C     -0.688300   -2.108900   -0.025200
C     -1.368200   -0.733200    0.013900
C      0.217300   -1.962600   -1.239000
C      0.636500   -0.693000   -1.231900
H      0.836600    1.729800   -0.009800
H      1.746300   -0.693400    1.192800
H      0.306100   -0.222100    2.145100
H     -1.299600   -3.005300    0.053300
H     -1.929300   -0.556700    0.935100
H     -1.976200   -0.510300   -0.863200
H      0.545700   -2.771700   -1.878300
H      1.379000   -0.225600   -1.868200
