11
gdb_2733
N     -0.018700    1.232500   -0.229800
C     -0.002900    0.008200    0.005900
O      1.015800   -0.859500    0.328900
C      0.102400   -1.988500    0.452800
C     -1.082400   -1.079600    0.025900
C     -2.179300   -0.920000    0.962800
N     -3.045900   -0.815700    1.719400
H      0.908500    1.653000   -0.158200
H      0.360800   -2.787800   -0.243400
H      0.062900   -2.356200    1.479200
H     -1.469000   -1.297800   -0.972600
