15
gdb_16307
O      0.265500    1.418200   -0.004900
C      0.133600    0.028600    0.030800
C      0.241700   -0.709100    1.423200
C     -1.187200   -1.212500    1.228300
N     -2.039600   -0.043000    1.061200
C     -1.290000   -0.527900   -0.124600
C     -2.020300   -1.052100   -1.285100
O     -3.191900   -1.362000   -1.248100
H     -0.453300    1.769100    0.537500
H      0.829400   -0.384400   -0.704100
H      0.991900   -1.502000    1.422600
H      0.389300   -0.056200    2.286700
H     -1.605200   -2.177800    1.486800
H     -3.001000   -0.359900    0.920600
H     -1.417200   -1.171400   -2.209800
