16
gdb_21162
C     -0.020300    1.440200    0.053000
N      0.039000   -0.002400   -0.119400
C     -1.175400   -0.699600   -0.033800
C     -1.320600   -2.081000   -0.025400
N     -0.401100   -3.146900   -0.087100
N     -2.663500   -2.311000    0.013700
N     -3.399100   -1.193500    0.034200
C     -2.499800   -0.205500    0.003000
H      0.991700    1.849200   -0.000700
H     -0.602400    1.882400   -0.762300
H     -0.477400    1.759600    1.004200
H      0.751900   -0.420600    0.465000
H      0.354000   -2.937800   -0.731700
H      0.011600   -3.368100    0.814400
H     -3.108600   -3.213500    0.011800
H     -2.834700    0.820800    0.008200
