16
gdb_10693
C     -0.276700    1.543800   -0.083200
C      0.090600    0.065700    0.066800
O     -1.041300   -0.720100    0.386700
C      0.763100   -0.482200   -1.203400
C      0.584900   -1.900700   -1.566400
O     -0.191300   -0.883700   -2.211600
C      1.929300    0.223400   -1.674400
C      2.912100    0.821100   -2.023600
H      0.611300    2.159500   -0.246900
H     -0.950700    1.683900   -0.935600
H     -0.785300    1.885600    0.821300
H      0.790500   -0.059500    0.901000
H     -1.589100   -0.734200   -0.409800
H      1.330400   -2.379200   -2.197300
H      0.032600   -2.541300   -0.884600
H      3.778200    1.345700   -2.344600
