9
gdb_21441
N     -0.077900    1.247900   -0.432000
C      0.009700    0.138800    0.135300
O      1.140200   -0.443700    0.588400
N      1.167900   -1.940200    0.753200
N      0.107100   -2.512300    0.839900
C     -1.170100   -1.810800    0.853300
O     -2.149600   -2.356100    1.235400
O     -1.161900   -0.552600    0.378900
H      0.838800    1.670000   -0.563600
