18
gdb_19711
C     -0.019000    1.529900    0.118500
C      1.299000    0.812000   -0.017700
C      0.003500    0.028400   -0.008700
C     -0.014100   -0.669400   -1.413300
C      1.500900   -1.002000   -1.541700
C      1.911000    0.494900   -1.426600
C      1.016600    1.080000   -2.509100
C     -0.128000    0.387800   -2.501200
H     -0.250800    1.924400    1.103400
H     -0.389000    2.132200   -0.702900
H      1.980800    0.797000    0.825000
H     -0.291300   -0.577200    0.840600
H     -0.716800   -1.500300   -1.477300
H      1.876700   -1.613900   -0.715000
H      1.769100   -1.456500   -2.500300
H      2.972500    0.731000   -1.502700
H      1.248800    1.960700   -3.094900
H     -1.021600    0.587500   -3.079200
