10
gdb_4427
O      0.174900    1.476400    0.010000
C     -0.057100    0.158400    0.004000
N      1.147100   -0.568700   -0.006200
C      1.131200   -1.853800   -0.012900
N      0.097200   -2.746400   -0.012500
C     -1.131700   -2.667800   -0.005700
O     -2.267900   -2.885900   -0.001000
O     -1.187200   -0.275300    0.007700
H      1.135400    1.593600    0.005500
H      2.098000   -2.353500   -0.021100
