12
gdb_9999
O     -0.067900    0.016000    0.138400
C      0.000300    1.203600    0.168900
O      1.137000    1.867200   -0.168200
C      1.128400    3.278600   -0.000900
C      1.216500    3.655000    1.496800
O      0.972100    2.874400    2.370800
C      2.226200    3.874300   -0.744400
C      3.143600    4.411400   -1.301500
H     -0.834000    1.878800    0.433600
H      0.173900    3.701800   -0.360700
H      1.496300    4.711700    1.683400
H      3.952100    4.872400   -1.814700
