10
gdb_3813
N      0.141500   -1.138000   -0.005400
C      0.024300    0.014300    0.002500
C     -0.097100    1.422900    0.011900
C     -1.210100    2.249800    0.031200
C     -0.678400    3.551000    0.031400
N      0.655500    3.543000    0.013800
N      0.988500    2.251200    0.002300
H     -2.241700    1.940300    0.043000
H     -1.208000    4.491500    0.043600
H      1.959700    1.983500   -0.012000
