15
gdb_220
C     -0.012200    1.543200   -0.001200
C     -0.002200   -0.001200    0.009500
C      0.759500   -0.523000    1.247600
C     -1.447400   -0.546000    0.000900
C      0.687600   -0.476100   -1.202900
N      1.228800   -0.848700   -2.154100
H      1.004800    1.944200   -0.009000
H     -0.538500    1.927400   -0.879000
H     -0.521500    1.910400    0.895200
H      0.258400   -0.175800    2.156500
H      0.784900   -1.615800    1.263400
H      1.789300   -0.156300    1.259900
H     -1.995800   -0.194800   -0.877100
H     -1.456200   -1.639200   -0.004700
H     -1.972100   -0.200700    0.897100
