13
gdb_445
N     -0.050600    1.276000   -0.074700
C     -0.030700    0.014300   -0.054400
C     -1.240800   -0.896400   -0.042500
C     -0.662400   -2.242300   -0.500400
C      0.781800   -2.143900    0.008500
O      1.108400   -0.745200   -0.041800
H      0.900900    1.647900   -0.062100
H     -1.626600   -0.957800    0.981900
H     -2.037200   -0.499800   -0.672000
H     -1.189200   -3.110700   -0.100000
H     -0.672000   -2.311200   -1.592600
H      0.873100   -2.493400    1.045100
H      1.508900   -2.680400   -0.605300
