18
gdb_17335
C     -0.036500    1.516200    0.011900
C      0.102400    0.016800   -0.025200
N     -0.567100   -0.824000    0.995900
C      0.910600   -0.780600    0.937300
C      1.532100   -1.948200    0.183400
N      1.117400   -1.853600   -1.238100
C     -0.313300   -2.051000   -1.514600
C      0.229700   -0.676400   -1.370500
H      0.739800    1.998200   -0.592100
H     -1.008600    1.834200   -0.382000
H      0.051800    1.894700    1.035500
H     -0.891800   -0.229400    1.756300
H      1.455300   -0.316400    1.755400
H      2.624600   -1.869200    0.218600
H      1.250200   -2.919100    0.603300
H     -0.522400   -2.450100   -2.504200
H     -0.956900   -2.405500   -0.716400
H      0.387400   -0.038300   -2.236500
