22
gdb_7578
C     -1.619100   -0.286500    0.147600
C     -0.130000    0.065200    0.022600
C      0.086300    1.577800   -0.121400
C      0.716500   -0.532200    1.163000
C      0.357800   -0.028000    2.555400
C      0.941900   -2.066700    1.062500
C      2.413600   -1.700900    0.801100
O      2.135500   -0.291600    0.896200
H     -2.083300    0.224900    0.997400
H     -2.160800    0.020400   -0.752700
H     -1.775700   -1.362900    0.277600
H      0.250500   -0.405800   -0.894300
H     -0.356200    2.132500    0.713000
H      1.153400    1.810300   -0.162000
H     -0.381400    1.944700   -1.040700
H     -0.671900   -0.288700    2.820100
H      1.024600   -0.475900    3.297700
H      0.466900    1.058200    2.620700
H      0.751500   -2.626200    1.980200
H      0.426600   -2.554400    0.232700
H      3.128300   -2.029900    1.565900
H      2.807300   -1.976900   -0.185000
