17
gdb_12642
C     -0.027700    1.402200    0.008900
N     -0.022500   -0.038200   -0.000600
C     -1.211000   -0.857400    0.003600
C     -0.652500   -2.255800   -0.007100
C      0.682900   -2.228200   -0.015600
C      1.681100   -3.335200   -0.027500
C      1.128100   -0.796200   -0.011100
O      2.269100   -0.372700   -0.015800
H      1.014000    1.729700    0.002300
H     -0.536800    1.810500   -0.873600
H     -0.521900    1.799100    0.904900
H     -1.833500   -0.669400    0.892500
H     -1.845700   -0.660800   -0.874700
H     -1.288500   -3.131900   -0.007500
H      1.199400   -4.316000   -0.030400
H      2.330100   -3.257000   -0.906500
H      2.339900   -3.267100    0.845000
