12
gdb_23671
O      0.092200    1.338400    0.097400
C      0.070500   -0.007500    0.058300
N      0.080500   -0.583500   -1.140100
C      0.058900   -1.920900   -1.178800
C      0.027200   -2.730700   -0.053600
C      0.017900   -2.084200    1.180100
F     -0.012300   -2.806800    2.296500
C      0.039200   -0.706600    1.269100
H      0.112000    1.629100   -0.825300
H      0.067600   -2.367400   -2.169400
H      0.010400   -3.810300   -0.118000
H      0.032300   -0.192900    2.220700
