13
gdb_19249
O      0.028900    1.386300    0.208600
C      0.025500    0.012100    0.039800
C     -1.337800   -0.697800    0.034700
O     -2.051000   -0.138400   -1.079600
C     -1.139500   -1.207000   -1.330700
C      0.265700   -0.588000   -1.434600
C      0.486900    0.364200   -2.506500
N      0.652500    1.142200   -3.345100
H     -0.667100    1.748100   -0.356500
H      0.741900   -0.413700    0.744800
H     -1.925000   -1.080200    0.860600
H     -1.519100   -2.094200   -1.821100
H      1.059000   -1.339600   -1.421300
