18
gdb_5079
C      0.042000    1.517200   -0.000600
C      0.007200    0.019000    0.000300
C     -0.070300   -0.799600   -1.104500
N     -0.077500   -2.099700   -0.671900
C     -0.005800   -2.135100    0.700300
N     -0.001100   -3.397600    1.344600
C      0.048500   -0.830600    1.153300
C      0.134300   -0.392600    2.582900
H      0.956800    1.907500    0.463100
H     -0.002500    1.911700   -1.020300
H     -0.800200    1.948300    0.555600
H     -0.120100   -0.555700   -2.154200
H     -0.127200   -2.927200   -1.240100
H      0.842300   -3.540100    1.890800
H     -0.787600   -3.502000    1.977300
H      1.039800    0.194700    2.781400
H     -0.717300    0.235000    2.874600
H      0.150300   -1.255700    3.256300
