17
gdb_18384
C     -0.082700    1.498000    0.030500
C      1.297800    0.881000    0.053800
C      2.074600    0.799200    1.338500
O      2.737300   -0.472000    1.492100
C      1.999900   -1.611700    1.584800
N      0.771100   -1.875100    1.468300
C     -0.257700   -0.888700    1.133800
C      0.077300    0.000700   -0.053000
H     -0.469000    1.917300    0.954500
H     -0.380500    2.040400   -0.859700
H      1.905400    0.991900   -0.839000
H      2.885100    1.531900    1.369500
H      1.435600    0.977700    2.209500
H      2.690800   -2.425700    1.809000
H     -1.174900   -1.445700    0.914800
H     -0.491300   -0.282300    2.017900
H     -0.095400   -0.455000   -1.023200
