15
gdb_15394
C     -0.198300    1.355800   -0.004400
O     -0.119200   -0.051200   -0.068000
C      0.802800   -0.502200   -1.029800
C      0.796800   -2.006700   -0.991400
O     -0.125600   -2.691300   -1.836500
C      1.264400   -2.828700   -2.126800
C      1.741600   -2.219400   -3.351600
N      2.149600   -1.749900   -4.325800
H      0.771800    1.805500    0.258900
H     -0.531100    1.787600   -0.960400
H     -0.926900    1.603600    0.770200
H      0.539000   -0.155200   -2.040500
H      1.819900   -0.135200   -0.804400
H      0.897500   -2.438100    0.004400
H      1.689300   -3.810500   -1.926800
