22
gdb_6049
C     -0.115600    1.563800   -0.082600
C      0.029500    0.042400    0.015900
O      0.718600   -0.460100   -1.128600
C      0.792800   -0.489500    1.258800
C      0.755600   -2.030900    1.224400
C      2.256300   -0.010200    1.267600
C      0.078000    0.000700    2.530600
O      0.688700   -0.607400    3.661100
H      0.859800    2.056400   -0.111300
H     -0.649900    1.825100   -1.004100
H     -0.694000    1.976500    0.749100
H     -0.983900   -0.394200    0.053000
H      0.261400   -0.141400   -1.912500
H      1.251300   -2.404300    0.326700
H      1.248800   -2.443700    2.106200
H     -0.278300   -2.396800    1.216400
H      2.327000    1.080200    1.341200
H      2.779600   -0.430900    2.129300
H      2.766700   -0.322900    0.354300
H      0.149200    1.095900    2.604100
H     -0.992400   -0.261300    2.476000
H      0.266300   -0.259800    4.451200
