18
gdb_6995
C     -0.654200    1.304200   -0.049900
C      0.109600   -0.010800   -0.021900
C      1.509800   -0.087400   -0.718700
C      1.928200   -0.992600    0.439000
O      2.671000   -1.928000    0.559300
C      0.758400   -0.528000    1.321900
C      1.130600    0.565400    2.323400
O      0.079800   -1.573300    1.980400
H     -0.038700    2.140300    0.296500
H     -0.984300    1.536800   -1.067700
H     -1.545300    1.256000    0.584400
H     -0.521600   -0.823100   -0.394600
H      1.582400   -0.513700   -1.721000
H      2.034400    0.874300   -0.701300
H      1.663800    1.398700    1.856000
H      0.223900    0.955100    2.795400
H      1.768600    0.141200    3.103700
H      0.662800   -2.342900    1.960900
