12
gdb_4725
C      0.020200    1.505700    0.010000
C     -0.000100    0.015500   -0.024800
C     -0.130200   -0.831300   -1.082600
O     -0.092600   -2.113300   -0.627100
C      0.061900   -1.978000    0.713000
N      0.122900   -0.748400    1.125900
C      0.137600   -3.162100    1.491500
N      0.199100   -4.128200    2.124500
H      0.960300    1.869800    0.435800
H     -0.090000    1.922900   -0.993700
H     -0.791400    1.888900    0.636100
H     -0.250000   -0.704800   -2.145000
