16
gdb_19546
O     -0.258300    0.056300    0.156500
C     -0.033100    1.225400   -0.065400
C      1.270400    1.858200   -0.008600
C      1.681100    3.239300    0.531300
C      2.821000    2.598500    1.326000
C      2.750200    1.427300    0.307100
C      3.175400    2.082900   -1.036100
C      1.899400    2.920400   -0.926900
H     -0.852500    1.931100   -0.342400
H      1.005500    4.026200    0.842000
H      3.769100    3.143100    1.400700
H      2.486000    2.294700    2.320300
H      3.074600    0.425900    0.574400
H      4.137700    2.606900   -1.057400
H      3.114900    1.380000   -1.870000
H      1.387200    3.468600   -1.707500
