13
gdb_540
O      0.180000    1.231500   -0.338400
C     -0.114200   -0.109200    0.039800
C     -1.613300   -0.179700    0.287900
N     -2.352000    0.209800   -0.898600
C     -3.346300   -0.539500   -1.438900
O     -3.758300   -1.589800   -0.991100
H      1.100400    1.278200   -0.611800
H      0.162300   -0.816300   -0.756000
H      0.422400   -0.395700    0.956700
H     -1.919600   -1.196100    0.543200
H     -1.867600    0.478000    1.129300
H     -2.056300    1.053900   -1.362900
H     -3.754100   -0.074700   -2.358800
