16
gdb_5121
C      0.041400    1.461600    0.000900
N     -0.029100    0.016600   -0.004300
C     -0.139300   -0.800400   -1.122300
C     -0.092700   -2.109000   -0.713100
C      0.058500   -2.106000    0.710700
N      0.152300   -3.145100    1.687100
C      0.096800   -0.784700    1.091200
O      0.228700   -0.252900    2.327300
H      1.069700    1.822200   -0.122400
H     -0.569400    1.857500   -0.814100
H     -0.346000    1.840500    0.948500
H     -0.244800   -0.361800   -2.101100
H     -0.169800   -2.975200   -1.353200
H      0.954100   -3.746600    1.521600
H     -0.666900   -3.745800    1.678400
H      0.272600   -1.022900    2.914800
