11
gdb_955
O      0.101600    1.309800    0.118200
C      0.069500   -0.027900    0.061100
N      0.086700   -0.580500   -1.156400
C      0.053900   -1.913200   -1.186800
C      0.004900   -2.684200   -0.032300
C     -0.008200   -1.982900    1.169900
N      0.023600   -0.652700    1.236300
H      0.132700    1.617900   -0.797700
H      0.067600   -2.371600   -2.173100
H     -0.021500   -3.765300   -0.065700
H     -0.045800   -2.506400    2.122900
