19
gdb_3015
C     -0.064000    1.539600   -0.006900
C     -0.060000    0.013100   -0.109600
C      0.831800   -0.515000   -1.242300
O      2.180100   -0.064200   -1.097000
C      0.754200   -2.021600   -1.371900
C     -0.271500   -2.657800   -2.278100
C      1.190300   -2.691000   -2.647100
H      0.954700    1.918100    0.110100
H     -0.484000    1.993100   -0.911700
H     -0.661200    1.880000    0.844500
H      0.287800   -0.425100    0.837800
H     -1.078600   -0.363900   -0.263000
H      0.502200   -0.067700   -2.189900
H      2.550100   -0.503700   -0.323400
H      0.968000   -2.556200   -0.447100
H     -0.746600   -3.577000   -1.954100
H     -0.923200   -1.999900   -2.844600
H      1.527700   -2.050200   -3.454800
H      1.717400   -3.636300   -2.581300
