17
gdb_4135
C     -0.162500    1.528800    0.001200
C      0.043500    0.020500    0.018500
C      1.232000   -0.655000   -0.775300
C      2.191600   -0.147800    0.359700
C      0.928400   -0.678400    1.124700
C      0.993200   -1.835100    0.151900
N      0.891400   -3.088900    0.207200
O      1.053500   -3.666700   -1.081900
H      0.754200    2.103900    0.147500
H     -0.597100    1.836200   -0.956000
H     -0.866000    1.820300    0.788400
H     -0.915100   -0.483200   -0.139000
H      1.404300   -0.662100   -1.848700
H      3.116200   -0.709500    0.501800
H      2.370700    0.926300    0.400500
H      0.757700   -0.710200    2.199000
H      0.954900   -4.604300   -0.886400
