12
gdb_424
C      0.108800    1.549700   -0.057600
C     -0.033700    0.044900    0.077600
O      0.782100   -0.710900   -0.856700
C      1.484000   -1.433800    0.173500
C      0.706500   -0.646300    1.235500
O      0.694500   -0.575600    2.425400
H      1.155300    1.854100    0.031800
H     -0.266300    1.878400   -1.031000
H     -0.470700    2.048900    0.725000
H     -1.089100   -0.257700    0.012100
H      1.281100   -2.512700    0.159500
H      2.568700   -1.268900    0.154200
