11
gdb_3810
C     -0.022400    1.382600    0.022200
O      0.013800   -0.048900   -0.021500
C      0.616100   -0.574600   -1.074900
N      1.163000    0.120500   -2.046900
O      1.654200   -0.888500   -2.898500
C      1.336000   -2.046400   -2.323100
N      0.698600   -1.941700   -1.202600
H      0.991900    1.792400    0.034900
H     -0.556200    1.780200   -0.846000
H     -0.547900    1.636600    0.942200
H      1.634000   -2.949500   -2.836000
