18
gdb_5840
C      0.204800    1.566100    0.174800
C     -0.013800    0.058300   -0.026800
C      0.587100   -0.756000    1.129800
O     -1.399400   -0.237300   -0.191100
C      0.671700   -0.364600   -1.330300
O      1.869200   -0.230300   -1.477300
C     -0.158400   -0.960000   -2.452800
O      0.640700   -1.277900   -3.553700
H      1.271900    1.799700    0.183400
H     -0.274700    2.132900   -0.628100
H     -0.230400    1.883400    1.129100
H      0.151600   -0.432300    2.081700
H      0.375400   -1.820800    0.998300
H      1.669200   -0.614200    1.175000
H     -1.856900    0.019300    0.615700
H     -0.684400   -1.842900   -2.057700
H     -0.949400   -0.240200   -2.713900
H      1.542300   -1.028800   -3.294600
