18
gdb_15678
C      0.172700    1.317800    0.138400
O      0.162500   -0.094500    0.044300
C      0.539100   -0.576300   -1.222300
O      1.898800   -0.323500   -1.521500
C      2.641300   -1.541300   -1.473800
C      1.605100   -2.617600   -1.338500
C      0.394600   -2.081400   -1.215900
C     -0.933400   -2.733700   -1.023400
H      1.181800    1.721700   -0.005700
H     -0.497900    1.774300   -0.606200
H     -0.181400    1.575800    1.139000
H     -0.067700   -0.062300   -1.988900
H      3.232900   -1.626100   -2.396000
H      3.348900   -1.533900   -0.630000
H      1.847000   -3.673400   -1.326600
H     -0.846100   -3.822400   -0.984400
H     -1.395400   -2.384600   -0.093600
H     -1.623600   -2.475200   -1.836400
