16
gdb_19935
C      0.078700    1.555900    0.245300
C      1.313500    0.749100   -0.018300
O      2.125700    0.364700    1.066500
C      1.460400   -0.598400    1.864000
C      0.741300   -0.075000    3.120600
O     -0.553500   -0.218500    2.491900
C      0.030600   -0.794300    1.296000
C     -0.024200    0.054100    0.040600
H     -0.104100    1.930800    1.245400
H     -0.286500    2.189000   -0.556200
H      1.879100    0.878700   -0.934400
H      2.113000   -1.464400    2.002600
H      0.833000   -0.717100    4.005200
H      0.971800    0.962000    3.388500
H     -0.327900   -1.814300    1.130500
H     -0.508800   -0.343500   -0.842200
