11
gdb_243
C     -0.011700    1.540600   -0.062200
C     -0.026200    0.037400    0.165900
O     -0.092500   -0.477800    1.249800
N      0.049000   -0.693900   -1.035800
C      0.061500   -2.077000   -1.200100
O      0.009500   -2.903600   -0.333700
H      0.908200    1.848800   -0.570900
H     -0.857700    1.848900   -0.686000
H     -0.074500    2.039200    0.904000
H      0.101200   -0.158100   -1.890200
H      0.128200   -2.327500   -2.279600
