20
gdb_11042
C      0.055200    1.563600   -0.042800
C      0.049800    0.046600    0.060600
O      0.729400   -0.488500   -1.080500
C      1.188300   -1.794000   -0.755500
C      1.504700   -1.777700    0.735200
C      1.593300   -3.091400    1.470100
C      2.283300   -0.564500    1.182100
C      0.774000   -0.561000    1.253800
H      1.077300    1.950800   -0.005900
H     -0.402100    1.882200   -0.983900
H     -0.514100    2.003000    0.782300
H     -0.995200   -0.311800    0.070800
H      0.412500   -2.552400   -0.959700
H      2.051200   -2.007900   -1.396500
H      2.440000   -3.691500    1.115900
H      1.729700   -2.935200    2.544600
H      0.683700   -3.687900    1.331200
H      2.822900   -0.641000    2.120100
H      2.766300    0.050600    0.429200
H      0.279000   -0.564500    2.218600
