15
gdb_21313
C     -0.035000    1.322800    0.054700
O      0.015800   -0.085800   -0.005700
C      0.666700   -0.566000   -1.160700
C      0.651300   -2.059500   -1.106100
N      1.162600   -2.898100   -1.989700
C      0.867100   -4.114300   -1.449700
N      0.212700   -4.081200   -0.300600
N      0.084100   -2.747400   -0.098400
H      0.973200    1.763200    0.070100
H     -0.585300    1.744300   -0.799800
H     -0.553500    1.589100    0.978000
H      0.161500   -0.221400   -2.077500
H      1.706900   -0.206000   -1.213700
H      1.142500   -5.047700   -1.917400
H     -0.380800   -2.377500    0.714100
