16
gdb_11962
O      0.014400    1.440100   -0.267900
C      0.026500    0.081400    0.146400
C     -1.322900   -0.551200    0.050500
C     -2.007800   -1.068100   -1.191500
C     -1.875000   -1.955800    0.028500
O     -1.218300   -3.168300    0.043700
C     -2.832500   -1.471200    1.115500
O     -2.317800   -0.115200    0.994300
H     -0.617200    1.900000    0.295900
H      0.724100   -0.442500   -0.514000
H      0.398500   -0.016700    1.177400
H     -2.967400   -0.659400   -1.497400
H     -1.328200   -1.330400   -1.997200
H     -1.644900   -3.755300   -0.590100
H     -3.911000   -1.528100    0.926600
H     -2.597100   -1.890000    2.100300
