16
gdb_16857
N     -0.154800    1.346500    0.147700
C     -0.020800    0.114900   -0.106700
C     -1.161500   -0.863700    0.095500
N     -1.270700   -1.934300   -0.900300
C     -0.855200   -1.616600   -2.273200
C      0.018700   -2.424200   -1.381200
C      1.255000   -1.810700   -0.764100
O      1.146900   -0.394300   -0.604000
H      0.723000    1.841800   -0.026700
H     -1.048900   -1.344300    1.076000
H     -2.088100   -0.288000    0.123500
H     -1.436400   -2.106100   -3.048700
H     -0.546900   -0.600800   -2.505300
H      0.084200   -3.502500   -1.520000
H      1.453800   -2.277900    0.211500
H      2.135300   -1.969600   -1.393300
