14
gdb_1764
C     -0.038400    1.533200    0.041900
C      0.034400    0.023500    0.019900
C      1.335100   -0.696200   -0.227900
C      0.709100   -0.716200    1.159500
O      1.265000    0.075700    2.165200
C      0.118500   -1.953900    1.624000
N     -0.332900   -2.949000    2.004500
H      0.845400    1.963600    0.516400
H     -0.110100    1.922300   -0.978800
H     -0.917500    1.874500    0.597000
H     -0.849900   -0.473200   -0.367700
H      1.336600   -1.611200   -0.808600
H      2.232200   -0.091100   -0.308300
H      2.048900   -0.371100    2.505100
