14
gdb_1113
C      0.178600    1.218200   -0.026200
C     -0.342300   -0.136900   -0.449800
O      0.226000   -0.803600   -1.290700
C     -1.630200   -0.601400    0.223600
C     -1.727700   -2.090800    0.601000
N     -1.289600   -2.951400   -0.355000
O     -2.221400   -2.430700    1.657200
H      1.037900    1.499800   -0.635400
H     -0.609500    1.974700   -0.110600
H      0.468800    1.183800    1.030600
H     -1.840300   -0.026100    1.126100
H     -2.440100   -0.390400   -0.489100
H     -0.687400   -2.593400   -1.085000
H     -1.244100   -3.926400   -0.104200
