15
gdb_19243
O     -0.143300    1.432500    0.145600
C     -0.037000    0.045000    0.007200
C     -1.377700   -0.674700    0.049300
C     -2.235700   -0.233400   -1.102500
C     -1.156100   -1.241600   -1.357000
C      0.215300   -0.555700   -1.450500
C      0.444900    0.400600   -2.521800
N      0.641100    1.188900   -3.345100
H      0.714600    1.834500   -0.030200
H      0.692500   -0.382600    0.706300
H     -1.785500   -1.163200    0.924300
H     -3.243000   -0.635600   -1.100600
H     -2.153000    0.777300   -1.488500
H     -1.355000   -2.238100   -1.728300
H      1.039800   -1.272500   -1.428500
