19
gdb_19282
C     -0.292800    1.578900   -0.018800
C      0.026800    0.089300    0.066800
C      0.584000   -0.624700   -1.167700
C      1.945800   -0.173100   -1.498400
N      1.790900   -1.176400   -0.421900
C      1.296500   -0.440300    0.810400
C      2.324200    0.470600    1.458800
O      3.451100   -0.279500    1.879900
H      0.543800    2.164600   -0.409900
H     -1.151000    1.748500   -0.678100
H     -0.549800    1.982200    0.966500
H     -0.853000   -0.438900    0.444700
H      0.005300   -1.251500   -1.839300
H      2.410200   -0.595300   -2.384200
H      2.269400    0.837400   -1.266400
H      1.029700   -1.207500    1.542400
H      2.623200    1.290000    0.787100
H      1.898000    0.934100    2.356000
H      3.683000   -0.864700    1.148900
