20
gdb_6232
C     -0.080000    1.528900   -0.065300
C      0.027700    0.024300    0.051300
C      1.347500   -0.711100   -0.190500
C      1.376000   -1.987900   -0.997300
O      2.504000    0.079100   -0.330600
C      0.757700   -0.678300    1.192000
C      1.425000    0.092200    2.308600
O      0.215200   -1.910800    1.608700
H      0.886000    2.011400    0.100400
H     -0.425300    1.816500   -1.065100
H     -0.793600    1.941600    0.656600
H     -0.847100   -0.525700   -0.289000
H      1.366200   -1.765400   -2.072000
H      2.286200   -2.554900   -0.776800
H      0.515000   -2.616300   -0.766700
H      2.553300    0.363700   -1.250100
H      1.948900    0.973700    1.939300
H      0.683800    0.414500    3.050700
H      2.151300   -0.551100    2.814800
H     -0.550800   -1.718100    2.160600
