17
gdb_8782
C      0.036800    1.395700    0.252100
N     -0.007800   -0.050400    0.215200
C     -1.116300   -0.630100   -0.020800
N     -2.364000   -0.030400   -0.160900
N     -1.126600   -2.035900   -0.131000
C      0.154000   -2.714100   -0.329900
C     -2.248500   -2.799500    0.124200
O     -2.282700   -4.008600    0.070500
H      1.078300    1.724200    0.203200
H     -0.495400    1.876400   -0.587400
H     -0.386000    1.798200    1.184600
H     -2.333800    0.977300   -0.187900
H     -2.968300   -0.416900   -0.871400
H      0.788900   -2.603500    0.552000
H     -0.064100   -3.765500   -0.508900
H      0.674800   -2.274600   -1.182000
H     -3.123400   -2.189300    0.397400
