19
gdb_12011
C     -0.022400    1.524600    0.009500
C      0.035200   -0.000700   -0.008700
O     -1.282000   -0.563900    0.052200
C      0.826500   -0.577200   -1.214600
C      1.356300   -1.953000   -0.748800
C      1.537000   -1.776900    0.747700
N      2.218000   -0.506900    1.100000
C      0.746900   -0.607600    1.192400
H      0.984000    1.942400    0.100900
H     -0.468500    1.913400   -0.914300
H     -0.628200    1.872700    0.851800
H     -1.790200   -0.193500   -0.677000
H      0.187800   -0.645900   -2.100500
H      1.661700    0.084500   -1.454300
H      0.612700   -2.737600   -0.924900
H      2.279200   -2.240300   -1.262100
H      1.684400   -2.640800    1.387800
H      2.610700   -0.589300    2.034200
H      0.257000   -0.560200    2.159300
