19
gdb_18165
C     -0.537500    1.217500   -0.092200
N     -0.092900   -0.124500    0.243900
C      1.177600   -0.677300   -0.148000
C      2.347900    0.321500   -0.020200
C      2.035500    0.447500    1.506200
C      1.894200    1.798000    2.185200
O      3.199000    2.357900    2.281100
C      0.813000   -0.478300    1.310900
H      0.261100    1.957600   -0.232500
H     -1.110300    1.167100   -1.024400
H     -1.207400    1.579000    0.694400
H      1.189300   -1.588700   -0.736800
H      3.320600   -0.134200   -0.212100
H      2.274200    1.234100   -0.619100
H      2.799100   -0.106700    2.062600
H      1.223700    2.463100    1.624000
H      1.447900    1.652300    3.183500
H      3.123100    3.232000    2.674600
H      0.467900   -1.202700    2.042500
