18
gdb_14443
O     -0.083300    1.387200   -0.035400
C      0.039900    0.007800   -0.034600
C      0.863300   -0.796200   -1.038600
C     -0.146400   -1.977600   -0.825800
C      0.361400   -2.959800    0.239700
C      0.542500   -2.074600    1.505100
C     -0.285700   -0.826400    1.198600
C     -1.087700   -0.993800   -0.074800
H      0.623200    1.754400    0.507100
H      0.771800   -0.364900   -2.038800
H      1.921800   -0.987700   -0.822700
H     -0.518700   -2.444100   -1.737700
H     -0.390600   -3.735800    0.422000
H      1.286300   -3.462200   -0.061800
H      0.179200   -2.577200    2.406900
H      1.596600   -1.832600    1.681800
H     -0.737400   -0.257600    2.004400
H     -2.156200   -0.862400   -0.177100
