18
gdb_15660
C      0.029900    1.597900   -0.128500
C      0.024300    0.072600    0.008800
C     -1.384400   -0.543800    0.100200
C     -1.412400   -2.086700    0.000300
C     -2.215600   -2.535100    1.193400
C     -2.592700   -1.521900    1.980700
C     -2.104900   -0.236100    1.431800
O     -2.241900    0.858500    1.933100
H      1.055000    1.978800   -0.174300
H     -0.481700    1.907300   -1.047300
H     -0.482700    2.067300    0.712900
H      0.537000   -0.375400   -0.851800
H      0.600500   -0.226000    0.894700
H     -2.002400   -0.109700   -0.696600
H     -1.854100   -2.445400   -0.937000
H     -0.401600   -2.514400    0.039000
H     -2.437300   -3.582300    1.372500
H     -3.157900   -1.580600    2.902000
