14
gdb_436
O     -0.103300    1.419700    0.110000
C      0.009000    0.002000    0.046800
C      0.185500   -0.567200    1.470800
C     -1.344500   -0.837300    1.541200
C     -1.408200   -0.660000   -0.004200
O     -2.434900    0.109200   -0.567600
H     -0.222200    1.736800   -0.791800
H      0.739700   -0.297000   -0.714500
H      0.783300   -1.481700    1.473700
H      0.604200    0.134100    2.194700
H     -1.678400   -1.792700    1.951200
H     -1.880300   -0.031200    2.050000
H     -1.398700   -1.618200   -0.531500
H     -2.328800    0.993000   -0.192100
