15
gdb_21297
C     -0.032800    1.407000    0.022800
O     -0.012400   -0.008200   -0.181100
C     -1.185100   -0.630300   -0.036900
N     -2.298300   -0.005000    0.271600
O     -3.268300   -1.016400    0.320800
C     -2.695200   -2.202600    0.039900
C     -3.587800   -3.392300    0.048400
C     -1.369300   -2.034000   -0.198700
H      0.992200    1.744600   -0.132300
H     -0.706500    1.891300   -0.690600
H     -0.364600    1.647300    1.037500
H     -4.392800   -3.281600   -0.685300
H     -3.019200   -4.292600   -0.191000
H     -4.053600   -3.523700    1.030500
H     -0.629100   -2.773900   -0.449600
