18
gdb_19615
C      0.018700    1.598900    0.008000
C      0.106500    0.077300    0.001800
C      0.833800   -0.678600   -1.117700
C      2.313000   -0.799700   -0.732200
C      1.280500   -1.764000   -0.172900
C      1.067300   -0.679500    0.967400
C      2.494300   -0.152300    0.639900
O      3.519000   -0.739200    1.414700
H      0.987600    2.072000   -0.173800
H     -0.667000    1.947300   -0.772300
H     -0.361200    1.966200    0.968200
H     -0.898300   -0.349100    0.107700
H      0.528500   -0.794100   -2.151100
H      3.075900   -0.993100   -1.476500
H      1.176300   -2.837800   -0.222900
H      0.798100   -0.868600    2.005500
H      2.668900    0.925200    0.705900
H      3.448600   -1.695600    1.306100
