15
gdb_18067
N     -0.284800    1.117300    0.014300
C     -0.514900   -0.087700   -0.273800
O     -0.851400   -0.955100    0.712900
C     -1.003400   -2.298200    0.347900
C     -2.271400   -3.020500    0.701200
C     -3.449900   -2.088600    0.429200
O     -2.993500   -1.833300   -0.931200
C     -1.916600   -2.743300   -0.757400
H     -0.062100    1.637500   -0.831800
H     -0.480400   -0.552600   -1.265400
H     -0.099000   -2.892500    0.464700
H     -2.296000   -3.932100    1.282000
H     -4.416200   -2.600800    0.410600
H     -3.507300   -1.173400    1.025100
H     -1.636900   -3.371800   -1.595800
