17
gdb_19569
C      0.034800    1.495200   -0.006400
N      1.275800    0.676500    0.045100
C     -0.013500    0.027200    0.012600
C     -0.583700   -0.981000    1.032600
C     -1.771000   -1.131500    0.026000
C     -0.618400   -0.956700   -0.995400
O      0.178400   -2.138200   -0.802600
C      0.263400   -2.203000    0.646500
H     -0.166100    2.069800    0.894200
H     -0.211300    2.009000   -0.933200
H      1.722400    0.640800   -0.868700
H     -0.714700   -0.755200    2.089100
H     -2.302000   -2.085300    0.000200
H     -2.461000   -0.287300    0.054800
H     -0.749800   -0.762300   -2.059000
H      1.308100   -2.109900    0.962800
H     -0.145500   -3.155900    0.999900
