20
gdb_11034
C     -0.137700    1.545000    0.187500
C      0.060400    0.065000   -0.035000
C     -0.883300   -0.924300    0.604800
C      0.568600   -0.868600    1.041400
C      1.519000   -1.875500    0.412900
O      1.472800   -3.180700    0.967700
C      1.196600   -1.818900   -1.101800
C      0.690500   -0.385400   -1.355800
H      0.806200    2.092400    0.078800
H     -0.846800    1.963000   -0.537300
H     -0.530000    1.750400    1.188600
H     -1.613600   -0.526900    1.301900
H     -1.248000   -1.771600    0.031100
H      0.787600   -0.511100    2.042000
H      2.549600   -1.542800    0.584900
H      0.546400   -3.445100    0.994800
H      2.059400   -2.086200   -1.716200
H      0.416400   -2.556400   -1.322800
H     -0.004700   -0.324400   -2.201400
H      1.531500    0.280300   -1.587900
