17
gdb_20301
C      0.624100    1.363300    0.325800
C      0.642200    0.176300   -0.562300
N     -0.544800    0.481800    0.248300
C     -0.805500   -0.322300    1.417200
C     -1.809500   -1.447800    1.440500
C     -1.619200   -2.326000    0.208100
O     -0.200800   -2.490500    0.486200
C     -0.330500   -1.727500    1.687400
H      1.235200    1.317500    1.225700
H      0.480400    2.361700   -0.077700
H      0.503700    0.291700   -1.633600
H      1.252700   -0.669400   -0.267900
H     -0.863800    0.274900    2.325700
H     -2.663400   -1.470700    2.104400
H     -2.128800   -3.293100    0.270800
H     -1.803900   -1.863300   -0.767100
H      0.229200   -2.064900    2.553900
