20
gdb_6974
C     -0.056200    1.589800    0.044000
C      0.032900    0.058400    0.017000
C     -1.388800   -0.537400   -0.075800
C      0.887700   -0.472900   -1.123800
C      1.660600   -1.492300   -0.749400
C      1.475300   -1.814900    0.716700
C      0.783300   -0.539300    1.258500
O      1.738900    0.354800    1.812200
H      0.930500    2.056200    0.080900
H     -0.572300    1.954700   -0.851100
H     -0.616100    1.935200    0.919100
H     -1.870700   -0.250200   -1.016300
H     -1.369300   -1.631000   -0.034900
H     -2.016300   -0.174800    0.746300
H      0.817400   -0.072100   -2.130300
H      2.317800   -2.057000   -1.401800
H      0.852900   -2.710600    0.847800
H      2.408400   -2.000500    1.259500
H      0.090100   -0.749200    2.078100
H      2.416300    0.500600    1.141600
