23
gdb_1130
C     -0.077200    1.587300    0.068300
C      0.027800    0.055800    0.037300
C      0.870000   -0.448700    1.217700
C     -1.379800   -0.570200    0.007500
C     -1.466900   -2.100100   -0.154000
C     -2.926200   -2.560800   -0.029200
C     -0.861700   -2.586100   -1.478700
H      0.913300    2.054200    0.053000
H     -0.640800    1.966400   -0.790800
H     -0.589400    1.927300    0.976800
H      0.548100   -0.218100   -0.890600
H      0.378300   -0.222400    2.172000
H      1.034300   -1.529500    1.177000
H      1.853600    0.032900    1.230600
H     -1.900300   -0.286800    0.934000
H     -1.950900   -0.106500   -0.810100
H     -0.904700   -2.567200    0.666000
H     -3.544200   -2.127100   -0.825000
H     -3.007000   -3.650400   -0.104700
H     -3.360200   -2.257300    0.929400
H      0.202500   -2.346000   -1.560300
H     -0.962400   -3.671900   -1.579700
H     -1.373400   -2.125500   -2.332900
