20
gdb_8112
C     -0.298600    1.569900    0.094200
C      0.022400    0.079500    0.058000
C      1.141400   -0.460800   -0.892200
C      1.779700   -1.215500    0.287200
C      2.316800   -2.616900    0.208500
C      2.182600   -0.228400    1.341200
O      2.634600    1.071900    1.066000
C      0.733100   -0.579700    1.250200
H      0.601300    2.160900    0.272400
H     -0.748600    1.892300   -0.852200
H     -1.016400    1.792900    0.892000
H     -0.897100   -0.480800   -0.143500
H      0.760000   -1.123500   -1.672700
H      1.778400    0.299200   -1.355200
H      3.220300   -2.663700   -0.413200
H      2.578500   -3.000400    1.200500
H      1.583400   -3.303400   -0.230400
H      2.677900   -0.689200    2.198800
H      3.509600    1.002000    0.669300
H      0.221800   -1.025300    2.097800
