18
gdb_20552
C     -0.059500    1.577500    0.180900
C     -0.061900    0.052800    0.024800
C      0.835400   -0.642800    1.054300
N     -1.425100   -0.480400    0.066300
C     -2.317400   -0.437900    1.087500
C     -3.462400   -1.072200    0.649700
C     -3.158000   -1.468100   -0.667100
N     -1.924600   -1.108900   -1.017700
H      0.955800    1.965800    0.056900
H     -0.703400    2.045100   -0.568500
H     -0.412600    1.877000    1.173300
H      0.281200   -0.204200   -0.980100
H      0.513900   -0.421400    2.077400
H      0.816900   -1.726800    0.915400
H      1.867800   -0.296800    0.946800
H     -2.077900    0.029800    2.029200
H     -4.376000   -1.223300    1.201400
H     -3.780100   -1.997400   -1.373900
