17
gdb_10509
O      0.380500    0.982100    0.589600
C     -0.269800    0.385300   -0.521300
C     -1.428800   -0.497800   -0.108000
C     -1.935500   -1.549800   -1.042700
C     -1.225200   -1.950500    0.234100
O     -2.426200    0.221000    0.589500
C     -2.221000    0.410600    1.915600
N     -2.912700    1.267600    2.533600
H     -0.130900    1.754500    0.850900
H     -0.632200    1.147200   -1.225500
H      0.478700   -0.221300   -1.041700
H     -3.009700   -1.686600   -1.078600
H     -1.425300   -1.681900   -1.990700
H     -0.220400   -2.353800    0.173200
H     -1.834500   -2.371500    1.025500
H     -1.447600   -0.242100    2.333100
H     -2.666400    1.257600    3.521700
