16
gdb_11866
O     -0.003600   -0.018900    0.003000
C     -0.003500    1.190100    0.009200
C     -1.257300    2.089900    0.032300
C     -0.708400    3.512300    0.032900
C     -1.380500    4.659500   -0.701300
C     -1.359700    4.650800    0.798700
C      0.764800    3.371800    0.011600
C      1.169200    2.092500   -0.001300
H     -1.877200    1.866400   -0.841600
H     -1.852300    1.856100    0.920700
H     -0.747900    5.370100   -1.222700
H     -2.315400    4.438700   -1.205100
H     -2.280200    4.424000    1.325600
H     -0.712700    5.355400    1.310500
H      1.416900    4.240000    0.007800
H      2.187800    1.728300   -0.017300
