15
gdb_5219
C      0.103000    1.650700   -0.018700
C     -0.149200    0.157800   -0.223100
N     -1.565600   -0.085500   -0.464200
C     -1.911900   -1.003800   -1.235800
O     -1.111400   -1.885200   -1.937600
C     -1.960200   -2.699500   -2.663900
C     -3.214600   -2.344600   -2.413900
O     -3.221600   -1.291900   -1.523600
H      1.157400    1.836500    0.209700
H     -0.159100    2.214900   -0.919000
H     -0.506200    2.032100    0.805500
H      0.480900   -0.222400   -1.039200
H      0.149600   -0.386900    0.683600
H     -1.511200   -3.455000   -3.283400
H     -4.168300   -2.704600   -2.755600
