14
gdb_15022
C      0.088800   -1.192100   -0.192100
C      0.059600    0.002000   -0.079900
C     -0.015400    1.460200    0.045900
C      1.333500    2.045000    0.124700
N      2.382200    2.528200    0.160000
C     -0.835900    2.085900   -1.097700
C     -0.656900    3.503300   -1.489300
N     -0.240300    2.410300   -2.389500
H      0.122800   -2.249400   -0.291400
H     -0.526000    1.703600    0.989100
H     -1.822200    1.633400   -1.162000
H     -1.512900    4.078900   -1.828000
H      0.115000    4.079000   -0.986500
H      0.772100    2.304200   -2.357400
