16
gdb_15221
C     -0.156400    1.614000   -0.039700
C      0.023300    0.109600    0.028500
C      1.341300   -0.587000   -0.229400
C      2.595300    0.154700   -0.514400
O      3.453000   -0.269400   -1.249700
C      0.697400   -0.599900    1.182300
C      1.299100    0.128700    2.327300
O      1.309200   -0.312400    3.450400
H      0.694100    2.173800    0.353300
H     -0.306300    1.928300   -1.077300
H     -1.040300    1.913600    0.532000
H     -0.829400   -0.437000   -0.365400
H      1.305500   -1.539800   -0.747200
H      2.710700    1.143300   -0.022400
H      0.289400   -1.560100    1.480300
H      1.739400    1.123900    2.106900
