15
gdb_14614
O     -0.172200    0.004900   -0.093200
C      0.008100    1.192300   -0.035300
C      1.349500    1.871300   -0.213900
C      1.310000    2.928100   -1.314700
O      2.515700    3.668500   -1.246600
C      2.597500    4.656200   -2.244600
C      3.861200    5.383900   -2.098600
N      4.847700    5.976100   -2.008400
H     -0.837100    1.891100    0.169100
H      1.597600    2.380500    0.727400
H      2.114300    1.118300   -0.414600
H      1.206100    2.453800   -2.303600
H      0.444200    3.598400   -1.178500
H      2.558500    4.216900   -3.254800
H      1.766600    5.376900   -2.171300
