20
gdb_8920
C      0.015400    1.576200   -0.073900
C     -0.039400    0.050800    0.021300
N     -1.406900   -0.479600    0.030200
C     -2.117300   -0.165800   -1.208100
C     -1.440300   -1.922200    0.308700
C     -0.748600   -2.319700    1.627800
C     -2.841600   -2.379300    0.378700
N     -3.925200   -2.774300    0.449000
H      1.040800    1.915600    0.099900
H     -0.288900    1.949500   -1.054900
H     -0.631000    2.028900    0.683800
H      0.557700   -0.394200   -0.800300
H      0.444300   -0.240900    0.955300
H     -1.617800   -0.580700   -2.104400
H     -3.132800   -0.564700   -1.166600
H     -2.193100    0.915500   -1.330300
H     -0.970100   -2.500200   -0.513500
H      0.336600   -2.243800    1.546300
H     -1.096000   -1.678500    2.441700
H     -0.993400   -3.356300    1.869900
