16
gdb_20053
C      1.061800    0.982200    0.264700
N      0.599800    0.168300   -0.872600
C     -0.259500    0.309200    0.310600
C     -0.519400   -0.947900    1.115500
C      0.678900   -1.915400    1.280400
N      1.075200   -1.793600    2.696100
C      0.197200   -1.056400    3.232600
O     -0.818800   -0.553100    2.488600
H      1.906900    0.570200    0.808300
H      1.072400    2.064100    0.166700
H      0.266700    0.762500   -1.626100
H     -1.130200    0.957000    0.228900
H     -1.411800   -1.449100    0.730600
H      0.400200   -2.953100    1.070000
H      1.506600   -1.664600    0.613000
H      0.164800   -0.774000    4.279300
