20
gdb_5817
C     -0.238100    1.552500   -0.040100
C     -0.045600    0.041400   -0.015400
O     -1.277300   -0.640600   -0.180200
C      1.138500   -0.461300   -0.903800
C      2.012900   -0.594700    0.369900
C      2.869100   -1.841000    0.529500
O      2.812200    0.584600    0.459900
C      0.714100   -0.489100    1.227400
H      0.712700    2.062000    0.132800
H     -0.622400    1.877200   -1.016100
H     -0.954000    1.856900    0.730500
H     -1.731700   -0.255900   -0.937800
H      0.901500   -1.433400   -1.342000
H      1.529100    0.213200   -1.669300
H      3.672000   -1.848800   -0.214400
H      3.328700   -1.873000    1.525800
H      2.272300   -2.750200    0.410400
H      3.203100    0.605600    1.340600
H      0.758100    0.161100    2.105800
H      0.325700   -1.469000    1.515600
