11
gdb_21883
O      0.106800    1.316900    0.028900
C      0.070000   -0.019600    0.037200
N      0.107000   -0.769800   -1.042600
N      0.045900   -2.028900   -0.538500
C      0.061600   -3.141100   -1.403500
O      0.011300   -4.277700   -1.039000
N     -0.027300   -2.107200    0.797100
C     -0.013900   -0.849600    1.190400
H      0.163700    1.612300   -0.889100
H      0.126600   -2.789300   -2.445400
H     -0.061700   -0.573500    2.231500
