16
gdb_9935
C     -0.035500    1.562800    0.038800
C      0.036900    0.053800   -0.009000
C      1.331400   -0.673600   -0.298200
O      2.523600    0.027000   -0.421500
C      0.718100   -0.736500    1.103400
O      1.405300    0.063100    2.048400
C      0.141400   -1.942000    1.616800
C     -0.312200   -2.967000    2.055800
H      0.920600    2.003100    0.324300
H     -0.300600    1.952900   -0.949000
H     -0.792300    1.900200    0.753100
H     -0.853100   -0.437900   -0.391500
H      1.306800   -1.563800   -0.918500
H      2.710700    0.392600    0.455800
H      1.899100   -0.535900    2.620600
H     -0.725800   -3.866200    2.440800
