14
gdb_20699
C     -0.109400    1.386800   -0.207700
C     -0.088300   -0.088900   -0.036900
N     -1.016900   -0.952800   -0.322100
C     -0.428900   -2.146200    0.041600
C     -1.163800   -3.444700   -0.111300
O     -1.800000   -3.527900   -1.369200
N      0.779800   -2.036200    0.516500
O      1.014200   -0.650200    0.474100
H      0.680100    1.704800   -0.895300
H     -1.077500    1.689800   -0.605600
H      0.063500    1.887300    0.749500
H     -0.460300   -4.276900   -0.034700
H     -1.886000   -3.538500    0.716100
H     -2.267300   -2.694300   -1.501600
