12
gdb_672
C     -0.045300    1.531600    0.012300
C      1.407700    1.966300    0.039900
C      2.248000    0.931500   -0.046100
C      1.482100   -0.351000   -0.084100
O      0.687300   -0.573300    1.105300
C      0.053800    0.010200   -0.033800
H     -0.598100    1.875100    0.895100
H     -0.572500    1.923500   -0.867100
H      1.699100    3.004700    0.151900
H      3.329300    0.984300   -0.050200
H      1.867700   -1.250900   -0.553500
H     -0.731900   -0.587000   -0.488900
