18
gdb_14142
C     -0.098800    1.552400    0.004200
C     -0.087800    0.050000    0.124100
O      1.132100   -0.623400   -0.202600
C      0.665200   -0.679100    1.162100
C      1.521000   -0.024500    2.256200
C      1.517900   -1.029800    3.441400
C      0.713800   -2.200200    2.928200
C      0.251900   -2.003400    1.694300
H      0.806100    1.992100    0.430000
H     -0.157900    1.849600   -1.048300
H     -0.969600    1.972600    0.519700
H     -0.977500   -0.441400   -0.279000
H      2.528600    0.142700    1.867500
H      1.123900    0.949200    2.554900
H      2.529600   -1.334000    3.736300
H      1.059700   -0.597800    4.339800
H      0.542700   -3.089300    3.525100
H     -0.344600   -2.694300    1.110500
