18
gdb_18355
C     -0.008800    1.551700    0.015900
C      0.007000    0.021400   -0.011400
C      0.938600   -0.532300   -1.155300
C      2.300900   -0.662800   -0.473200
C      2.106700   -0.763100    0.835600
C      2.513300   -0.258200    2.196400
O      1.145900    0.226200    2.377800
C      0.682200   -0.588400    1.240100
H      1.005200    1.953400    0.102200
H     -0.456600    1.946100   -0.901700
H     -0.583600    1.924500    0.868100
H     -1.017100   -0.347600   -0.130000
H      0.567800   -1.489300   -1.546000
H      0.980400    0.155000   -2.008000
H      3.242700   -0.563300   -0.999600
H      2.759700   -1.022900    2.945000
H      3.257000    0.545000    2.233400
H      0.146500   -1.465700    1.627100
