18
gdb_18344
C     -0.041100    1.482200   -0.048900
C     -0.005600   -0.003200    0.105700
C     -1.007400   -0.859600    0.290800
C     -2.401000   -1.221200   -0.160500
O     -1.866400   -2.488300   -0.656000
C     -0.625000   -2.289700    0.112400
C      0.754900   -2.214500   -0.559200
C      1.280400   -0.824500   -0.068000
H      0.523500    1.980400    0.750000
H      0.421700    1.792000   -0.994600
H     -1.064300    1.866900   -0.022000
H     -3.142700   -1.393300    0.631100
H     -2.847400   -0.609400   -0.952400
H     -0.643200   -2.945200    0.994100
H      1.424000   -3.044500   -0.315300
H      0.615400   -2.189900   -1.644600
H      1.954600   -0.355200   -0.793600
H      1.851000   -0.917700    0.866300
