18
gdb_16414
C     -0.063900    1.551600    0.030900
C      0.012600    0.017000    0.010200
C      0.746700   -0.490800   -1.219900
C      1.857100   -1.211800   -1.065000
C      2.281100   -1.475300    0.365500
C      1.070100   -2.027200    1.157000
C      0.745900   -0.521500    1.256200
O      2.166800   -0.224900    1.118400
H      0.941600    1.971000    0.124900
H     -0.513700    1.939300   -0.888700
H     -0.666900    1.903000    0.875200
H     -1.011900   -0.384600    0.009200
H      0.354700   -0.226800   -2.198700
H      2.430100   -1.609700   -1.895700
H      3.264900   -1.935300    0.474000
H      0.374600   -2.690700    0.639900
H      1.359100   -2.437100    2.126400
H      0.330300   -0.126000    2.188200
