18
gdb_16506
C     -0.025900    1.481100    0.038000
C     -0.006100   -0.027000   -0.035900
C      0.952200   -0.734500   -0.940600
C      0.515300   -1.971900   -1.193600
C     -0.715000   -2.235400   -0.354200
C     -0.234500   -2.290900    1.153200
C     -0.471900   -0.789500    1.238400
C     -1.289800   -0.814700   -0.035100
H      0.911300    1.874600    0.448100
H     -0.166700    1.922800   -0.954900
H     -0.840200    1.835600    0.678400
H      1.876100   -0.288500   -1.290300
H      1.034700   -2.737900   -1.756600
H     -1.382200   -3.030800   -0.682500
H     -0.964500   -2.822300    1.769900
H      0.768600   -2.688600    1.341900
H     -0.642500   -0.226300    2.149200
H     -2.272800   -0.417000   -0.261200
