13
gdb_23869
C     -0.030000    1.561400    0.031800
C     -0.037100    0.020800   -0.015100
C     -1.391000   -0.523000    0.016900
C     -2.516100   -0.940100    0.054700
C      0.718700   -0.487200   -1.248500
F      1.988900   -0.049800   -1.227400
F      0.753800   -1.823200   -1.287600
F      0.161900   -0.056800   -2.386900
H      0.996000    1.935600    0.024500
H     -0.562500    1.969500   -0.829900
H     -0.526600    1.904600    0.941000
H      0.525300   -0.368300    0.842900
H     -3.506900   -1.321500    0.084000
