15
gdb_5927
C      0.172400    1.593400   -0.025900
C      0.020200    0.067600   -0.021700
O      0.662800   -0.393400    1.161400
C     -1.469100   -0.364300   -0.051400
C     -2.248100    0.142400    1.150600
O     -3.338700    0.645000    1.074500
C      0.696600   -0.505900   -1.209600
N      1.217300   -0.988600   -2.121400
H      1.230200    1.861700   -0.017400
H     -0.301700    2.026300   -0.909400
H     -0.300400    2.006100    0.869100
H      0.719100   -1.355700    1.131500
H     -1.961700   -0.025200   -0.966100
H     -1.511400   -1.462600   -0.037300
H     -1.740200   -0.002300    2.126900
