15
gdb_2768
C     -0.361700    1.468000    0.100200
C      0.169500    0.051800    0.010800
O      1.430600   -0.039200   -0.690400
C      1.983400   -0.891000    0.327100
C      0.774100   -0.664900    1.265400
C      1.067100    0.216500    2.450100
O      0.601500    0.057900    3.549400
H      0.367300    2.147400    0.548600
H     -0.594000    1.836300   -0.903800
H     -1.281200    1.493500    0.694300
H     -0.579500   -0.595000   -0.468300
H      2.094600   -1.929200   -0.009800
H      2.954100   -0.525900    0.685000
H      0.233500   -1.549300    1.603200
H      1.776800    1.050900    2.244100
