22
gdb_8005
C     -0.218100    1.420900    0.386000
C      0.014900   -0.015900   -0.054500
C      1.198900   -0.244100   -0.997200
C      1.547000   -1.713500   -0.718600
C      2.920700   -2.169300   -1.206400
C      1.286000   -1.814700    0.807700
C      2.497100   -1.581300    1.709700
O      0.297700   -0.816700    1.098100
H      0.684000    1.830500    0.851100
H     -0.487200    2.047700   -0.470700
H     -1.031600    1.470500    1.115400
H     -0.903600   -0.395800   -0.534400
H      0.951200   -0.051300   -2.044700
H      2.035000    0.411600   -0.722200
H      0.787200   -2.331700   -1.214600
H      3.724400   -1.556900   -0.786200
H      3.116800   -3.212200   -0.934900
H      2.985100   -2.096500   -2.296900
H      0.856100   -2.796700    1.050500
H      3.006200   -0.643500    1.464700
H      2.164100   -1.519300    2.749400
H      3.218700   -2.400600    1.629500
