19
gdb_18409
C     -0.014900    1.532900    0.062100
C      1.433900    2.037800   -0.004200
O      2.105000    1.846200   -1.237600
C      2.440600    0.498700   -1.526800
C      1.303100   -0.246500   -2.199800
N      0.989900   -1.596800   -1.691000
C      0.036800   -0.495200   -1.466500
C     -0.160100    0.004700   -0.045900
H     -0.427500    1.872900    1.021100
H     -0.602200    2.022900   -0.724400
H      1.446900    3.120000    0.164400
H      2.014600    1.568800    0.809400
H      3.312400    0.537000   -2.189300
H      2.737300   -0.038300   -0.614900
H      1.217200   -0.079900   -3.271800
H      0.673700   -2.194100   -2.450300
H     -0.864700   -0.491400   -2.077600
H      0.568300   -0.486900    0.608400
H     -1.150100   -0.301900    0.311300
