16
gdb_18257
O     -0.038000    1.437900   -0.047300
C      0.038300    0.022600    0.054000
C     -1.389500   -0.523500   -0.009100
C     -2.097400   -0.222100   -1.319500
C     -2.567400   -1.323800   -1.910200
C     -2.198100   -2.531400   -1.111900
O     -0.765000   -2.721800   -0.995800
C     -1.454000   -2.049100    0.062900
H      0.857000    1.783000   -0.112500
H      0.621500   -0.415000   -0.767100
H      0.506900   -0.283300    1.003100
H     -1.947100   -0.089100    0.832400
H     -2.150200    0.785900   -1.711500
H     -3.105800   -1.368000   -2.848800
H     -2.778900   -3.448400   -1.126100
H     -1.447200   -2.561100    1.021700
