18
gdb_18834
C     -0.119200    1.555300   -0.036500
C      0.042600    0.046800    0.031900
O      0.826600   -0.404200   -1.091300
C      1.526500   -1.551200   -0.663200
C      2.589200   -1.405100    0.410300
C      2.308600   -0.134300    1.209700
C      0.793300   -0.532400    1.238000
C      1.189700   -1.948700    0.731100
H      0.844000    2.066500    0.040800
H     -0.579700    1.842000   -0.986100
H     -0.766500    1.903900    0.774800
H     -0.953800   -0.425200   -0.022100
H      1.676000   -2.288000   -1.443400
H      3.530300   -1.941300    0.359600
H      2.747500   -0.182200    2.209200
H      2.573600    0.821900    0.747900
H      0.270500   -0.436300    2.189000
H      0.847600   -2.914600    1.077500
