18
gdb_11834
C     -0.461600    1.387000   -0.016400
C      0.067900   -0.032200    0.000900
O      1.291300   -0.185700   -0.774300
C      2.025700   -0.576500    0.383700
C      3.165300   -1.532600    0.331500
C      3.403900   -0.067700    0.676500
C      0.798700   -0.522700    1.289100
O      0.841000    0.308200    2.418800
H      0.289200    2.101800    0.334300
H     -0.739900    1.669500   -1.035900
H     -1.346200    1.473300    0.622400
H     -0.696100   -0.731100   -0.361400
H      3.259000   -2.274400    1.118300
H      3.479400   -1.867100   -0.651500
H      3.874000    0.552800   -0.078800
H      3.651000    0.186200    1.702800
H      0.450300   -1.494900    1.645000
H      1.293500    1.122700    2.173800
