17
gdb_19234
C     -0.139700    1.568300   -0.169000
C      0.015300    0.061900   -0.047900
C      0.679800   -0.694500   -1.208500
N      2.062000   -0.169900   -1.316500
C      1.752800   -1.226100   -0.330100
C      1.155800   -0.527300    0.906700
C      1.996200    0.380400    1.660500
C      2.679900    1.134500    2.301200
H      0.799300    2.023700   -0.490100
H     -0.916400    1.816200   -0.901200
H     -0.425600    2.011100    0.790100
H     -0.935200   -0.407600    0.221500
H      0.191500   -1.151200   -2.060800
H      2.498900   -0.626500   -2.116200
H      2.272500   -2.176100   -0.344300
H      0.711200   -1.267100    1.579400
H      3.293800    1.800300    2.855100
