14
gdb_12979
O      0.038400    1.388400   -0.080400
C     -0.043800    0.011100   -0.003800
C     -0.442000   -0.809000   -1.218700
C     -1.318400   -0.774600    0.036000
C     -1.045800   -1.909600    0.972500
C      0.203000   -1.879300    1.468400
C      0.890300   -0.659400    0.981600
O      1.954500   -0.183600    1.314100
H      0.927000    1.605000    0.239200
H     -0.777400   -0.214000   -2.062400
H      0.075900   -1.730000   -1.464800
H     -2.295800   -0.311700   -0.015700
H     -1.774800   -2.690000    1.162300
H      0.665000   -2.598400    2.130800
