21
gdb_1814
C      0.080700    1.561600    0.220700
C      0.051300    0.032600    0.051400
C      0.635000   -0.621700    1.319200
C     -1.410300   -0.421700   -0.132000
C      0.859000   -0.457400   -1.154500
C      0.937700    0.264400   -2.475800
C      2.166400    0.144100   -1.604000
H      1.096400    1.937400    0.378000
H     -0.345300    2.078400   -0.644800
H     -0.511700    1.850100    1.095400
H      0.065500   -0.333500    2.209800
H      0.609800   -1.714700    1.246700
H      1.676900   -0.321600    1.472000
H     -1.850200    0.023200   -1.030600
H     -1.475400   -1.510800   -0.232700
H     -2.025000   -0.129000    0.726500
H      0.816600   -1.541600   -1.244400
H      0.887500   -0.324000   -3.385600
H      0.482800    1.244800   -2.562800
H      2.521200    1.045200   -1.116400
H      2.959700   -0.526900   -1.915200
