11
gdb_21978
O     -0.055500   -0.008800    0.003400
N     -0.013600    1.216800    0.006900
O      1.010600    1.894500    0.002500
C     -1.264100    1.913200    0.016700
C     -1.429100    3.285100    0.021900
N     -2.760200    3.470000    0.030800
N     -3.474900    2.318100    0.031700
C     -2.562000    1.359100    0.023200
H     -0.709900    4.086400    0.019900
H     -3.256800    4.346100    0.036500
H     -2.839900    0.317700    0.021700
