17
gdb_7959
C      0.103600    1.577500   -0.231700
C     -0.019800    0.077900    0.053700
N      0.521500   -0.749700   -1.016900
C      1.829500   -1.111300   -0.754600
O      2.641100   -1.558700   -1.515500
O      2.072500   -0.883000    0.571500
C      0.852800   -0.466100    1.217300
C      1.177600    0.479500    2.356600
H      1.148000    1.868900   -0.378700
H     -0.449900    1.832700   -1.141200
H     -0.312900    2.172300    0.586700
H     -1.069900   -0.172700    0.238800
H      0.287800   -0.578500   -1.982500
H      0.370400   -1.370000    1.612100
H      1.693000    1.374300    1.999800
H      0.260500    0.782900    2.871400
H      1.824400   -0.022000    3.080800
