15
gdb_12042
N     -0.094200    1.480100    0.016400
C     -0.042200    0.021700    0.008100
C      0.192000   -0.653700    1.399700
N     -1.115500   -1.390100    1.342400
C     -2.155100   -0.350400    1.245700
C     -1.404800   -0.693400    0.024500
C      0.849500   -0.513100   -1.032100
N      1.563000   -0.880500   -1.865200
H      0.843200    1.856500    0.136300
H     -0.427600    1.821800   -0.882000
H      1.024600   -1.357100    1.410700
H      0.277200    0.051100    2.231700
H     -3.159000   -0.753900    1.331300
H     -1.994300    0.614000    1.718700
H     -1.829100   -1.218300   -0.824100
