14
gdb_15499
O     -0.623300    0.822800   -0.602400
C      0.206900    0.989300    0.253000
C      1.402800    1.919100    0.129100
C      1.454700    2.742800   -1.162100
C      1.387300    4.172600   -0.687800
C      1.329700    4.293000    0.644200
C      1.351200    2.962300    1.284400
O      1.322000    2.691800    2.460600
H      0.148100    0.474800    1.234000
H      2.296000    1.305800    0.298800
H      2.367800    2.563200   -1.741000
H      0.611600    2.496500   -1.817100
H      1.385300    5.002100   -1.386900
H      1.274200    5.207600    1.219700
