13
gdb_16791
O      0.034300    0.009100   -0.133500
C      0.006700    1.205200   -0.012300
C     -1.230000    2.099900    0.047300
C     -0.696400    3.531600    0.006800
O     -1.334700    4.541400    0.040300
N      0.750700    3.527200   -0.085300
C      1.344600    3.030500    1.168500
C      1.202600    2.118200   -0.000500
H     -1.873300    1.905600   -0.816800
H     -1.842000    1.926800    0.937300
H      2.323600    3.436200    1.400700
H      0.693200    2.887300    2.027400
H      2.075400    1.833700   -0.577700
