16
gdb_21278
C     -0.110500    1.390300   -0.168800
O      0.010900   -0.022100   -0.044200
C      0.644000   -0.644700   -1.053400
N      1.131800   -0.002100   -2.108700
N      1.679100   -0.984200   -2.871800
C      2.314000   -0.641500   -4.121300
C      1.537000   -2.206100   -2.308300
C      0.865600   -2.038800   -1.116200
H      0.874000    1.867100   -0.224200
H     -0.675200    1.659500   -1.067900
H     -0.641400    1.726300    0.723200
H      2.688800   -1.554600   -4.587500
H      1.599100   -0.161100   -4.796300
H      3.149600    0.044500   -3.952300
H      1.918800   -3.092500   -2.791000
H      0.577000   -2.789300   -0.400500
