18
gdb_10634
C      0.365800    1.450600    0.318300
C     -0.276800    0.146000   -0.167200
C      0.490200   -0.477400   -1.322600
O      1.771700   -1.056400   -0.988300
C      0.744900   -1.936200   -1.446700
C      0.243200   -2.994800   -0.499300
C      0.480700    0.301100   -2.544600
C      0.444500    0.957400   -3.551500
H      1.388600    1.268700    0.660900
H      0.404000    2.192800   -0.484200
H     -0.203900    1.875700    1.149500
H     -0.326400   -0.568200    0.658200
H     -1.305600    0.330900   -0.498200
H      0.908200   -2.291900   -2.466100
H      0.108300   -2.613900    0.514100
H     -0.708800   -3.403300   -0.854400
H      0.964100   -3.818200   -0.455400
H      0.423100    1.533200   -4.443600
