20
gdb_5834
C     -0.028700    1.532300    0.052000
C     -0.012500   -0.007000    0.057600
C      0.695700   -0.512800    1.325900
C     -1.459900   -0.527500    0.003000
C      0.781500   -0.469600   -1.207300
O      2.071100    0.082300   -1.229900
C      0.879900   -1.977300   -1.337000
O      1.949400   -2.536700   -1.411400
H      0.987500    1.931800    0.040800
H     -0.555700    1.918700   -0.827700
H     -0.542200    1.909300    0.943000
H      0.203300   -0.122300    2.222200
H      0.682000   -1.606800    1.390800
H      1.738300   -0.185200    1.337300
H     -1.949700   -0.255800   -0.939200
H     -1.522700   -1.614200    0.117900
H     -2.044700   -0.084200    0.815400
H      0.207000   -0.128900   -2.090100
H      2.675200   -0.672400   -1.318000
H     -0.068700   -2.544900   -1.382900
