14
gdb_15307
O     -0.531700    0.277600    0.077000
C      0.033200    1.339900    0.093900
C      1.424600    1.580200   -0.464700
C      1.456200    2.782300   -1.381400
O      1.240700    4.057200   -0.777900
C      2.537900    3.794600   -1.341100
C      3.649400    3.695400   -0.435100
C      4.598500    3.620900    0.299000
H     -0.437900    2.241700    0.542400
H      2.099700    1.763300    0.380800
H      1.756500    0.679300   -0.988900
H      0.946500    2.655600   -2.338000
H      2.737900    4.349100   -2.257200
H      5.434600    3.560600    0.951700
