14
gdb_4719
C     -0.001500    1.530200   -0.005700
C      0.001800    0.030800    0.015900
C     -0.048400   -0.807500   -1.083500
N     -0.024200   -2.101000   -0.653300
C      0.040700   -2.122000    0.724200
C      0.057700   -0.806300    1.158500
C      0.077700   -3.332000    1.448100
N      0.107600   -4.334100    2.031300
H      0.910600    1.942200    0.440200
H     -0.069400    1.909000   -1.029200
H     -0.848300    1.939400    0.556100
H     -0.099100   -0.573500   -2.135400
H     -0.050300   -2.919800   -1.236300
H      0.105500   -0.495300    2.190700
