13
gdb_3734
C      0.151100    1.536100    0.159200
C     -0.111900    0.051800   -0.091500
N      0.666800   -0.467800   -1.209600
C      1.800900   -1.189500   -1.237100
N      2.157900   -1.387400   -2.487500
N      1.211000   -0.763000   -3.236300
N      0.316000   -0.208600   -2.486900
H      1.201000    1.713000    0.409300
H     -0.097700    2.121800   -0.728800
H     -0.466100    1.885300    0.991700
H      0.142400   -0.551000    0.784400
H     -1.164600   -0.123800   -0.325700
H      2.314300   -1.544700   -0.358500
