15
gdb_133814
C     -3.981800   -0.366800   -0.749000
N     -2.977900   -1.537100   -0.434500
C     -1.826400   -0.960100   -1.315500
C     -1.220300    0.136200   -0.931900
C     -1.252700    1.141400   -0.070300
C     -2.645200    1.652200    0.435800
C     -3.375000    0.325600    0.466700
C     -2.848900   -0.857200    0.852200
H     -5.007600   -0.716200   -0.601500
H     -3.875900    0.070700   -1.742800
H     -1.833200   -1.409700   -2.299800
H     -0.398800    1.384200    0.561000
H     -3.138300    2.381600   -0.212200
H     -2.492100    2.119500    1.413600
H     -2.206600   -1.196300    1.656200
