14
gdb_4980
N     -0.046300    1.436700   -0.119200
C     -0.048700    0.046900   -0.046500
C     -1.200200   -0.727900    0.025200
C     -1.102200   -2.122000    0.031200
C      0.152200   -2.702700   -0.030800
N      1.279600   -1.973400   -0.094000
C      1.171400   -0.663000   -0.101300
O      2.309300    0.080400   -0.157700
H      0.831900    1.857100    0.148400
H     -0.838300    1.888100    0.314300
H     -2.170200   -0.241500    0.072700
H     -1.992600   -2.737300    0.085900
H      0.278100   -3.780900   -0.027700
H      3.037900   -0.554800   -0.173200
