16
gdb_5564
C      0.224600    1.491000    0.006800
C      0.105100    0.005500   -0.070400
C     -0.020900   -0.861400   -1.133900
C     -0.065700   -0.538500   -2.598700
O      0.916600    0.416600   -3.000800
N     -0.108800   -2.166500   -0.689700
C     -0.045400   -2.098300    0.617600
N      0.086200   -0.809000    1.044500
H      1.056700    1.801300    0.650600
H      0.409500    1.883800   -0.994200
H     -0.685800    1.960500    0.400400
H      0.026700   -1.480700   -3.156000
H     -1.024000   -0.087100   -2.880800
H      1.772000    0.071400   -2.723200
H     -0.079800   -2.932800    1.302200
H      0.172900   -0.501400    1.999200
