17
gdb_9185
C      0.048600    1.458800    0.090500
N     -0.104100    0.021100    0.201700
C     -1.226400   -0.635800   -0.210100
O     -2.201200   -0.066600   -0.670800
C     -1.159100   -2.156300   -0.071200
C     -2.566400   -2.772800    0.012500
C     -2.537300   -4.229400    0.020300
C     -2.486600   -5.430400    0.026500
H      0.877500    1.724200   -0.575500
H     -0.880500    1.851100   -0.324100
H      0.225600    1.917000    1.069800
H      0.659200   -0.519200    0.573500
H     -0.640000   -2.555500   -0.951100
H     -0.561100   -2.444100    0.800100
H     -3.072900   -2.405600    0.913100
H     -3.155700   -2.400400   -0.831300
H     -2.461500   -6.491700    0.029400
