20
gdb_12522
C     -0.848500    1.297600    0.084200
C      0.045700    0.032800   -0.000400
C      0.668300   -0.038000   -1.372100
C      1.922200    0.174400   -1.768200
C      3.122500    0.499400   -0.915800
C      3.297600   -0.392300    0.323600
C      2.227800   -0.256600    1.375300
C      0.916900   -0.067600    1.226100
H     -0.237500    2.203400    0.029500
H     -1.568000    1.321900   -0.740100
H     -1.409100    1.317900    1.024700
H     -0.649400   -0.821400    0.067400
H     -0.064900   -0.244000   -2.151800
H      2.114600    0.113500   -2.837800
H      4.024300    0.416700   -1.532800
H      3.077700    1.547500   -0.589900
H      3.368900   -1.440300    0.000200
H      4.265000   -0.159500    0.784800
H      2.589000   -0.335800    2.399500
H      0.332200    0.001800    2.143900
