14
gdb_537
C     -0.039200    1.509900    0.148600
C     -0.005500   -0.001600    0.006600
O     -1.337500   -0.479800   -0.045500
C     -1.428900   -1.872400   -0.177100
C     -2.899100   -2.251400   -0.218100
O     -3.294500   -3.381100   -0.327000
H      0.978200    1.909400    0.192400
H     -0.554800    1.964300   -0.702000
H     -0.565400    1.798100    1.062900
H      0.535500   -0.295600   -0.908400
H      0.526100   -0.461600    0.856400
H     -0.944000   -2.237100   -1.099500
H     -0.950500   -2.403300    0.664500
H     -3.584400   -1.378700   -0.137300
