16
gdb_11033
O     -0.085100    1.457400   -0.044400
C      0.006800    0.032300   -0.003300
C      0.666200   -0.486500    1.269700
C     -0.139000   -1.292800    1.958900
C     -1.475400   -1.431700    1.289900
O     -2.100800   -2.677200    1.248400
C     -2.284900   -0.156300    1.207100
C     -1.390100   -0.573600    0.054600
H      0.810900    1.809500   -0.046800
H      0.542900   -0.325800   -0.897000
H      1.660000   -0.170900    1.570800
H      0.091000   -1.778400    2.901400
H     -2.635700   -2.769100    2.043800
H     -3.350000   -0.272100    1.032200
H     -1.997600    0.696400    1.811200
H     -1.869300   -0.894900   -0.861000
