12
gdb_339
C     -0.018800    1.484200    0.002200
C      0.016200   -0.062800   -0.019800
C      0.764300   -0.553300    1.210900
O      1.809500   -1.145300    1.180000
C     -1.412800   -0.585200   -0.015600
O     -1.914400   -1.200100   -0.917800
H      0.997400    1.886800   -0.004700
H     -0.548400    1.864300   -0.875200
H     -0.528000    1.858900    0.896700
H      0.524200   -0.434800   -0.911900
H      0.273900   -0.296700    2.179100
H     -1.992500   -0.329700    0.902200
