16
gdb_3528
C     -0.168700    1.610600   -0.010900
C     -0.020500    0.098900    0.014700
C      1.196600   -0.564500   -0.647900
C      2.173100   -0.245600    0.527300
C      2.533800   -1.723500    0.602900
N      1.051900   -1.821600    0.254600
C      0.776700   -0.575400    1.141700
H      0.777000    2.114400    0.214600
H     -0.504100    1.954700   -0.995100
H     -0.908600    1.944200    0.724500
H     -0.963000   -0.413800   -0.209500
H      1.446800   -0.676500   -1.705600
H      2.791700    0.645300    0.677800
H      3.191400   -2.137200   -0.169300
H      2.780500   -2.147900    1.582100
H      0.530700   -0.700400    2.199000
