17
gdb_20217
C      0.002100    1.525500    0.225100
C      1.297100    2.215900   -0.235500
C      2.441500    1.242400   -0.406600
C      2.548400   -0.100300    0.213400
C      1.204100   -0.826400    0.400300
C      0.058200    0.039300   -0.059300
C      0.970400   -0.602700   -1.073800
N      2.331900    0.042900   -1.273000
H     -0.150400    1.671000    1.301100
H     -0.863500    1.971900   -0.274800
H      1.144100    2.712300   -1.201500
H      1.593800    2.999800    0.469100
H      3.401900    1.723400   -0.585500
H      3.483900   -0.497600    0.595700
H      1.082700   -1.722600    0.993800
H     -0.895300   -0.479700    0.008300
H      0.630000   -1.274200   -1.851900
