12
gdb_4951
N     -0.104100    1.229200   -0.429400
C     -0.031600    0.018800   -0.043600
N     -1.155100   -0.695800    0.310600
C     -1.096800   -2.010600    0.731900
C      0.073200   -2.643700    0.811000
O      1.261500   -2.023400    0.480400
C      1.286800   -0.731300    0.057600
O      2.329700   -0.213100   -0.224500
H      0.837900    1.560600   -0.639200
H     -2.035000   -0.207000    0.247000
H     -2.028900   -2.491500    0.989400
H      0.215200   -3.664100    1.127400
