16
gdb_18877
O      0.175500    1.390900    0.181900
C     -0.015000    0.010900    0.032500
C     -1.426100   -0.594600   -0.007900
C     -2.063100   -0.426500   -1.373000
C     -1.526500    0.640300   -2.310200
O     -0.104000    0.422100   -2.361800
C      0.220700   -0.580600   -1.392100
C     -1.012400   -1.478400   -1.192600
H      0.242200    1.742200   -0.716700
H      0.585700   -0.512200    0.784800
H     -2.026000   -0.865200    0.853100
H     -3.101400   -0.724400   -1.461100
H     -1.935900    0.530900   -3.322000
H     -1.732800    1.658800   -1.959300
H      1.194300   -0.998500   -1.641500
H     -1.117400   -2.539500   -1.365800
