14
gdb_3004
C      0.031400    1.237300    0.151800
O     -0.034800   -0.150700   -0.190700
C     -1.271400   -0.687100   -0.128400
O     -2.264100   -0.090600    0.210200
N     -1.241600   -2.001100   -0.578700
C     -0.455800   -3.043400    0.057800
C     -1.953600   -3.047400    0.121300
H      1.082400    1.513100    0.062100
H     -0.578600    1.833700   -0.531500
H     -0.321800    1.404000    1.172700
H      0.067300   -3.715900   -0.615700
H      0.087800   -2.783300    0.961800
H     -2.425100   -2.782200    1.063600
H     -2.522800   -3.727400   -0.505400
