10
gdb_157
C     -0.012500    1.423300   -0.065900
C      1.497000    1.759300    0.062500
N      2.137300    0.480300    0.426000
C      1.199300   -0.367400    0.485000
O     -0.078400    0.006300    0.233300
H     -0.643800    1.951800    0.653400
H     -0.413700    1.577000   -1.071200
H      1.925700    2.134800   -0.872100
H      1.697600    2.506300    0.837100
H      1.314900   -1.417700    0.728700
