18
gdb_18966
O     -0.065000    1.473700   -0.329900
C      0.049100    0.116300    0.081800
C     -1.337300   -0.491600    0.048300
C     -1.973700   -0.854300   -1.311000
C     -1.163100   -2.194800   -1.440200
C     -2.435600   -3.024800   -1.698600
C     -2.867600   -1.969000   -0.664400
C     -1.492100   -2.027700    0.087300
H      0.809100    1.873000   -0.294300
H      0.727300   -0.443700   -0.581500
H      0.459300    0.044800    1.103000
H     -2.001300    0.057600    0.727200
H     -2.261500   -0.195400   -2.131100
H     -0.173100   -2.315300   -1.881700
H     -2.879900   -2.947900   -2.696500
H     -2.421100   -4.067600   -1.364400
H     -3.840800   -1.812700   -0.195800
H     -1.227100   -2.729000    0.881600
