20
gdb_7488
C     -0.057900    1.738600   -0.250000
C     -0.024300    0.221900   -0.107200
C     -1.395900   -0.397400    0.169800
C     -2.045800    0.069300    1.476400
O     -3.258700   -0.618400    1.749500
C      0.812200   -0.523400   -1.182600
C      1.740000   -0.897300   -0.012200
O      0.929100   -0.171100    0.931300
H      0.939800    2.121000   -0.483400
H     -0.740300    2.039000   -1.052800
H     -0.388700    2.213100    0.678300
H     -2.071000   -0.190900   -0.670100
H     -1.271500   -1.487800    0.217500
H     -1.324400   -0.037000    2.299100
H     -2.322300    1.126100    1.415600
H     -3.040800   -1.542600    1.906200
H      0.303400   -1.357600   -1.669000
H      1.255700    0.120200   -1.944500
H      1.793800   -1.966200    0.229300
H      2.761000   -0.500100   -0.064900
