14
gdb_20670
C     -0.024300    1.522500    0.015500
C     -0.002800    0.026300   -0.020800
C     -0.045000   -0.697100   -1.170200
N     -0.023300   -2.059100   -1.158600
N      0.039900   -2.808900   -0.050300
C      0.082300   -2.164500    1.078100
C      0.067400   -0.703800    1.243500
O      0.110300   -0.163200    2.344900
H      0.868800    1.903400    0.522300
H     -0.077400    1.956500   -0.986600
H     -0.878100    1.876300    0.603100
H     -0.097900   -0.247400   -2.156500
H     -0.054900   -2.587500   -2.014800
H      0.133700   -2.775100    1.974500
