16
gdb_19402
C     -0.057500    1.589300   -0.113800
C      0.036600    0.078500    0.032900
C      1.051000   -0.673900   -0.858900
O      2.360500   -0.230500   -0.483000
C      1.738600   -1.260700    0.304000
C      0.793400   -0.533600    1.247200
C      0.988500   -0.077800    2.619900
O      0.114500   -1.179300    2.304900
H      0.940400    2.035600   -0.099700
H     -0.544400    1.864400   -1.055600
H     -0.643200    2.027900    0.700700
H     -0.948400   -0.398200   -0.023100
H      0.923700   -1.057600   -1.864500
H      2.265400   -2.198500    0.434400
H      1.898100   -0.341700    3.157200
H      0.486600    0.823900    2.967000
