13
gdb_2141
C     -0.007700    1.469600    0.004700
N      0.012500    0.022800   -0.015900
C      0.060100   -0.813700   -1.127100
N      0.069900   -2.070300   -0.898600
C      0.024200   -2.199000    0.561000
C     -0.013600   -0.776800    1.127100
O     -0.056100   -0.381300    2.267400
H      0.894500    1.887600   -0.453500
H     -0.886800    1.863400   -0.515600
H     -0.048300    1.771400    1.053200
H      0.086300   -0.374000   -2.119800
H     -0.859200   -2.764200    0.877000
H      0.900400   -2.740200    0.934200
