18
gdb_15406
C      0.109000    1.474500    0.476800
C     -0.036800   -0.029900    0.237600
C     -1.465300   -0.434400   -0.156100
C     -1.578100   -1.919600   -0.405500
O     -1.665200   -2.784400    0.719500
C     -2.790500   -2.745000   -0.167100
C     -4.046300   -2.160100    0.391000
O     -5.138500   -2.393900   -0.060600
H      1.135100    1.733600    0.754000
H     -0.148800    2.046300   -0.421600
H     -0.549600    1.812700    1.284300
H      0.658300   -0.347800   -0.550600
H      0.249600   -0.582000    1.140500
H     -2.163800   -0.129900    0.629500
H     -1.763100    0.095300   -1.070800
H     -0.917100   -2.296600   -1.190400
H     -2.943400   -3.629200   -0.784800
H     -3.896200   -1.499300    1.271400
