15
gdb_2244
C     -0.002700    1.501800   -0.008500
C     -0.038600    0.002700    0.078400
C     -1.271500   -0.781100   -0.339400
O     -1.094600   -2.100500    0.160400
C     -0.193700   -2.078600    1.262900
C      0.637300   -0.829900    1.080000
O      1.168100   -0.709000   -0.245400
H      0.941200    1.884600    0.386400
H     -0.093000    1.831700   -1.049200
H     -0.828000    1.945900    0.557500
H     -2.171000   -0.303200    0.083400
H     -1.391900   -0.847700   -1.426200
H     -0.726300   -2.030700    2.227600
H      0.391500   -3.003600    1.233800
H      1.245100   -0.431600    1.888400
