16
gdb_16760
O     -0.006600    1.420700   -0.032600
C     -0.029600    0.006800   -0.080700
C     -1.436800   -0.479900    0.029300
C     -2.544800    0.267600    0.079500
C     -3.755800   -0.603000    0.075900
O     -3.872700   -1.418800   -1.118600
C     -3.279800   -1.995900    0.044000
C     -1.755000   -1.967600    0.052000
H      0.903700    1.709700   -0.140100
H      0.408300   -0.373200   -1.021200
H      0.571600   -0.434600    0.735100
H     -2.566800    1.348200    0.077000
H     -4.701300   -0.293300    0.510200
H     -3.821100   -2.829600    0.483500
H     -1.336900   -2.497400   -0.813000
H     -1.353500   -2.455900    0.950200
