13
gdb_3121
N      0.106500   -1.143400    0.008000
C      0.046400    0.012000   -0.009400
C     -0.074500    1.438400   -0.017400
C      0.281400    2.272100   -1.193200
N      1.131800    2.386000   -0.005500
C      0.365000    3.256200    0.961900
C     -0.821600    2.261500    1.036500
H      0.772100    1.773800   -2.022700
H     -0.373600    3.097400   -1.467300
H      0.921200    3.349400    1.895000
H      0.156600    4.253600    0.563700
H     -1.816200    2.611400    0.749900
H     -0.884500    1.753300    1.999000
