18
gdb_6532
C     -0.032300    1.529600    0.004500
C      0.006900    0.019400    0.029500
O     -1.156200   -0.600300   -0.468600
C      1.323500   -0.713400   -0.176100
C      0.633200   -0.696300    1.183000
O      1.178100    0.109800    2.188100
C      0.030800   -1.966600    1.728400
O      1.078100   -2.611400    2.460300
H      0.840800    1.952200    0.504200
H     -0.053700    1.895300   -1.029400
H     -0.931100    1.891500    0.513300
H     -1.175500   -0.457700   -1.421600
H      1.300900   -1.637800   -0.743300
H      2.224800   -0.118700   -0.276600
H      1.711400   -0.490000    2.726300
H     -0.807500   -1.714000    2.393100
H     -0.348300   -2.598300    0.918300
H      0.680400   -3.256000    3.051600
