14
gdb_21215
C     -0.075000    1.476300   -0.087200
N      0.192800    0.058900    0.098900
C      0.662400   -0.661200   -0.981900
N      1.173300   -0.119200   -2.084900
N      1.519000   -1.181500   -2.824300
N      1.299900   -2.377800   -2.270300
C      0.744900   -2.069800   -1.112500
O      0.305800   -2.969000   -0.205100
H      0.850400    1.986200   -0.367100
H     -0.817700    1.681000   -0.872700
H     -0.429400    1.894700    0.857500
H     -0.516400   -0.438600    0.617400
H      2.058900   -1.082900   -3.665300
H      0.471200   -3.850200   -0.561300
