12
gdb_4637
O     -0.011600   -0.064400   -0.000300
C     -0.025900    1.151400    0.010100
C      1.168700    1.961700    0.002800
C      1.312000    3.317800    0.012400
N      2.654100    3.589500   -0.001500
C      3.420600    2.403700   -0.019700
O      4.625900    2.311900   -0.035000
N      2.451700    1.419100   -0.016700
H     -0.972700    1.730500    0.025800
H      0.557700    4.087100    0.027500
H      3.088800    4.496500    0.000500
H      2.645500    0.432000   -0.027300
