14
gdb_5633
O     -0.039500    1.446300    0.058800
C      0.019500    0.030100   -0.007800
C     -1.376600   -0.498600   -0.004500
C     -2.539800    0.202100    0.050400
O     -3.613300   -0.626900    0.033700
C     -3.131800   -1.905000   -0.034200
C     -1.770800   -1.876700   -0.059600
O     -0.862000   -2.889300   -0.123700
H      0.861100    1.781900    0.056100
H      0.542400   -0.308700   -0.917500
H      0.577400   -0.390200    0.845400
H     -2.747000    1.256500    0.102600
H     -3.862500   -2.695700   -0.055900
H     -1.326600   -3.731600   -0.152900
