22
gdb_12373
C     -0.014000    1.574100   -0.035300
C      0.038400    0.037000    0.026800
C      0.653200   -0.522300   -1.268800
C      0.969900   -2.014800   -1.161800
C      1.986100   -2.258700   -0.039900
C      1.628200   -1.494900    1.207200
C      0.757500   -0.482000    1.265700
C      0.412700    0.165100    2.583800
H      0.995400    2.001000   -0.026900
H     -0.505500    1.898100   -0.958700
H     -0.568900    2.004900    0.802300
H     -1.004800   -0.315400    0.089000
H     -0.026000   -0.326100   -2.106800
H      1.580600    0.026500   -1.485700
H      0.047100   -2.567400   -0.941500
H      1.349000   -2.399900   -2.114700
H      2.051200   -3.329600    0.191500
H      2.994400   -1.972800   -0.377500
H      2.112500   -1.818800    2.127200
H      0.893800   -0.355700    3.416000
H      0.721100    1.216500    2.622700
H     -0.671300    0.153300    2.760400
