15
gdb_19953
O     -0.016100    0.033800   -0.033400
C      0.012400    1.221700    0.053600
C     -1.010200    2.328200    0.349200
N      0.093500    3.325200    0.266500
C      1.109900    2.306200   -0.111000
C      2.286800    2.189300    0.830800
C      2.658300    3.280500    1.739200
O      1.968200    2.124000    2.218600
H     -1.792100    2.407900   -0.416900
H     -1.484200    2.275000    1.335200
H     -0.052900    4.023400   -0.451800
H      1.475800    2.366700   -1.146100
H      3.053500    1.483400    0.508800
H      3.692200    3.378200    2.067000
H      2.063800    4.190800    1.726600
