17
gdb_4160
C      0.234900    1.259500   -0.235300
O     -0.197200   -0.014900    0.205900
C      0.613600   -0.563600    1.204000
C      0.160700   -1.976300    1.669000
C      1.617000   -2.510300    1.489300
C      1.950700   -1.196400    0.812100
N      2.886600   -0.745400    0.089100
O      3.905500   -1.701500   -0.079200
H      1.235600    1.212400   -0.681800
H     -0.483700    1.597300   -0.985600
H      0.252600    1.984400    0.593800
H      0.734600    0.144800    2.041300
H     -0.272000   -2.040500    2.668000
H     -0.534000   -2.401900    0.942800
H      2.163100   -2.661300    2.425600
H      1.747400   -3.402500    0.872200
H      4.526500   -1.238400   -0.652000
