17
gdb_5306
C      0.158800    1.615400   -0.093600
C      0.020200    0.100100    0.087600
C      0.465300   -0.672600   -1.170600
C      0.780000   -0.364200    1.291300
N      1.615300    0.288700    2.037100
C      2.028800   -0.630200    2.995400
C      1.409200   -1.809800    2.772000
O      0.601300   -1.657700    1.679300
H      1.203400    1.891800   -0.260900
H     -0.429800    1.944100   -0.955300
H     -0.186000    2.154800    0.791700
H     -1.037000   -0.140400    0.265700
H      1.513700   -0.459300   -1.403600
H      0.358800   -1.751500   -1.031500
H     -0.141900   -0.374900   -2.030800
H      2.735400   -0.369100    3.767000
H      1.411800   -2.779000    3.239800
