15
gdb_4963
C     -0.036600    1.548400   -0.019700
C     -0.000700    0.045600   -0.037300
C     -0.086600   -0.710900   -1.196900
C     -0.046800   -2.106700   -1.140900
C      0.080300   -2.704400    0.101800
N      0.165900   -2.006400    1.242600
C      0.125500   -0.685700    1.159300
O      0.212900    0.009600    2.317200
H      0.874900    1.961700    0.425600
H     -0.138800    1.949100   -1.031500
H     -0.871900    1.918100    0.584700
H     -0.185500   -0.205200   -2.153300
H     -0.112900   -2.707800   -2.039800
H      0.116400   -3.785900    0.202400
H      0.292400   -0.655000    3.015700
