16
gdb_15568
O     -0.297700    1.507600   -0.310800
C      0.038600    0.151500   -0.040000
C     -1.180700   -0.771500    0.214900
C     -1.379600   -1.597800   -1.079900
C     -0.074200   -1.421800   -1.807800
C      0.725300   -0.507200   -1.235100
C      2.006000   -0.097600   -1.676500
C      3.103900    0.268700   -2.011700
H     -0.722100    1.537400   -1.175600
H      0.695300    0.207300    0.832700
H     -0.959800   -1.443300    1.049500
H     -2.052600   -0.176000    0.494500
H     -1.593300   -2.652200   -0.870200
H     -2.219800   -1.240700   -1.691700
H      0.176800   -1.972100   -2.707800
H      4.068400    0.590700   -2.317000
