13
gdb_17425
O      0.218800    1.430800   -0.286000
C      0.071600    0.081600   -0.160000
C      0.527300   -0.869300   -1.286900
C     -0.453500   -1.879800   -0.681400
C     -1.248300   -0.855100   -0.004500
N     -0.393200   -1.815900    0.826700
C      0.453100   -0.664600    1.103700
O      0.996300   -0.344600    2.117400
H      0.341200    1.803400    0.597500
H      0.174700   -0.528100   -2.263100
H      1.592800   -1.115900   -1.330300
H     -0.763100   -2.835800   -1.081100
H     -2.288900   -0.685400    0.227800
