20
gdb_6737
C     -0.102900    1.197300   -0.196000
C      1.233300    0.478600    0.066000
C      1.283600   -0.182100    1.366800
C      1.301900   -0.707000    2.451600
C      1.320600   -1.381200    3.743900
C      1.318600   -2.926100    3.645300
C      2.564700   -3.476000    2.956600
O      1.136000   -3.492200    4.937100
H     -0.284800    1.966100    0.559800
H     -0.093400    1.675800   -1.180000
H     -0.936600    0.490500   -0.164100
H      1.411100   -0.260700   -0.725800
H      2.057200    1.200200   -0.008900
H      2.205300   -1.068800    4.318600
H      0.447400   -1.088400    4.338700
H      0.429200   -3.226400    3.080400
H      2.517400   -4.566700    2.900300
H      2.663400   -3.070800    1.946100
H      3.467900   -3.199500    3.516900
H      1.954000   -3.365600    5.430800
