13
gdb_678
C     -0.033200    1.504700   -0.024900
O      1.033700    1.956200    0.803800
C      2.050100    0.960300    0.868500
C      1.360300   -0.352800    0.566700
N      0.136600   -0.541900    1.373700
C      0.037500   -0.007200   -0.000600
H     -0.963000    1.909700    0.387700
H      0.079900    1.862500   -1.061500
H      2.841900    1.140800    0.122900
H      2.491900    1.007000    1.869200
H      1.936200   -1.210100    0.235300
H     -0.115700   -1.527600    1.361500
H     -0.437300   -0.589900   -0.782600
