17
gdb_13685
C      0.383200    1.284100   -0.335800
C      0.305500   -0.129000    0.185500
O      1.502600   -0.715800    0.709400
C      0.394900   -0.527100    1.601100
C      0.598900    0.435600    2.743400
O      1.259400   -0.191800    3.842400
C      2.597000   -0.357900    3.721300
N      3.234700   -0.946000    4.637000
H      0.861700    1.290600   -1.320500
H     -0.622400    1.702200   -0.451300
H      0.960000    1.936800    0.321800
H     -0.255800   -0.808400   -0.459400
H     -0.094000   -1.455700    1.900400
H      1.156900    1.319300    2.416800
H     -0.367700    0.761800    3.138500
H      3.008600    0.057900    2.793800
H      4.224600   -0.976400    4.401600
