16
gdb_313
C     -0.005500    1.558600    0.001300
C      0.069300    0.040100    0.029500
C      1.116400   -0.680200   -0.869000
C      1.347000   -1.686500    0.274100
O      2.693000   -2.068300    0.442000
C      0.718700   -0.661100    1.258000
H      0.980100    2.002600    0.181100
H     -0.362700    1.921900   -0.969000
H     -0.687800    1.938500    0.770100
H     -0.925600   -0.382000   -0.152400
H      0.802500   -1.063100   -1.842800
H      2.013400   -0.065600   -0.997200
H      0.696500   -2.566400    0.160700
H      2.742100   -2.686400    1.178100
H      1.508000   -0.039000    1.693000
H      0.067200   -1.028900    2.055400
