20
gdb_5842
C      0.008600    1.589300    0.138300
C     -0.094300    0.079000    0.328500
C     -1.413400   -0.494900   -0.149600
O     -2.286900    0.191400   -0.631900
C     -1.641800   -2.016300   -0.011700
C     -2.862800   -2.243500    0.892600
C     -1.868700   -2.601500   -1.414000
O     -0.467100   -2.570600    0.580500
H      0.974300    1.957100    0.496100
H     -0.096200    1.860400   -0.915500
H     -0.783400    2.108600    0.684400
H      0.708800   -0.457800   -0.192300
H      0.033600   -0.214100    1.378200
H     -3.734400   -1.720900    0.492700
H     -3.093400   -3.313200    0.955600
H     -2.663800   -1.875400    1.903400
H     -0.970300   -2.484900   -2.027100
H     -2.101300   -3.670500   -1.344900
H     -2.700300   -2.094100   -1.907700
H     -0.603100   -3.519400    0.668900
