17
gdb_12940
C      0.075600    1.576000    0.063300
C      0.103300    0.063800    0.083200
C      1.312600   -0.785100   -0.192300
N      2.542800   -0.207500    0.357100
C      1.993700   -0.126000    1.651400
O      2.427100    0.321600    2.675800
C      0.699700   -0.803900    1.205200
C     -0.056200   -1.855000    1.963000
H      1.014000    2.009500    0.419000
H     -0.104100    1.945500   -0.952200
H     -0.725800    1.957000    0.704200
H     -0.813300   -0.391400   -0.293900
H      1.363300   -1.590600   -0.914200
H      3.053200    0.556600   -0.072200
H     -0.537100   -1.423200    2.847200
H     -0.838700   -2.304600    1.343900
H      0.608400   -2.655200    2.304700
