16
gdb_18006
C      0.109200    1.425400   -0.137600
N      0.098500   -0.029200   -0.151500
C      0.523900   -0.630300    0.868600
N      1.112900   -0.243700    2.094700
C      1.163800   -1.609700    2.623700
C     -0.150300   -2.165800    3.207000
O     -0.630700   -2.542700    1.897000
C      0.591000   -2.103300    1.260800
H      0.918000    1.855300    0.473000
H      0.222300    1.795900   -1.160500
H     -0.845500    1.814000    0.242300
H      0.854700    0.569600    2.637700
H      2.112200   -1.905900    3.070600
H     -0.021800   -3.047400    3.847300
H     -0.803100   -1.441000    3.708100
H      1.017300   -2.841300    0.581800
