14
gdb_21720
N     -0.133100    1.456000   -0.077600
H      0.040100    0.568700   -0.541900
H      0.735900    1.978900   -0.103500
H     -1.803100    1.986500   -0.823100
C     -0.556100    1.216800    1.324100
C     -1.996600    0.806200    1.330000
C     -2.913600    1.152800    0.368300
O     -2.780000    1.844100   -0.752100
O     -4.120900    0.672500    0.648800
N     -4.044300   -0.039400    1.871000
C     -2.787800    0.057900    2.235200
H      0.066000    0.469100    1.836800
H     -0.411200    2.162500    1.862800
H     -2.483800   -0.420300    3.157600
