16
gdb_10624
C      0.065000    1.480500   -0.151400
C      0.090900   -0.003400    0.111500
O      1.356800   -0.662900    0.139500
C      0.566000   -0.660800    1.356600
C      1.226400    0.097300    2.497300
O      2.396400   -0.564500    2.931700
C     -0.002200   -1.939800    1.716800
C     -0.498000   -2.986000    2.038800
H      0.857600    2.011400    0.377700
H      0.195100    1.662700   -1.223300
H     -0.901900    1.901100    0.143700
H     -0.669900   -0.565100   -0.433700
H      1.439700    1.126700    2.183100
H      0.550500    0.135300    3.356800
H      2.955500   -0.678800    2.154300
H     -0.924100   -3.917200    2.320600
