13
gdb_16717
C      0.093100   -1.130200    0.052500
C      0.002200    0.067500    0.026400
C     -0.091400    1.484600   -0.005500
N     -1.172300    2.170500   -0.012200
C     -0.771000    3.552300    0.006400
C      0.023900    3.998400    1.220800
C      0.752200    3.533400   -0.002700
O      1.101000    2.160300   -0.041100
H      0.164800   -2.190000    0.074500
H     -1.399500    4.252900   -0.528800
H      0.052400    5.065200    1.412400
H      0.014300    3.365300    2.101600
H      1.422900    4.157400   -0.578200
