14
gdb_7421
N     -0.068700    1.284600    0.295800
C      0.104100    0.007700   -0.109000
O      1.151900   -0.469900   -0.505100
C     -1.186900   -0.853200   -0.092300
N     -0.870900   -2.238900   -0.421200
H      0.134100   -2.284400   -0.596200
H     -1.630200   -2.589700    1.204300
H     -1.348200   -2.542300   -1.261000
C     -1.890400   -0.777000    1.284700
O     -2.258900    0.265000    1.775100
O     -2.045000   -1.962100    1.853100
H      0.757200    1.851300    0.408700
H     -0.900400    1.503300    0.832300
H     -1.882900   -0.398900   -0.806400
