15
gdb_9053
C      0.030200    1.506300   -0.026000
C     -0.000300   -0.028400    0.022800
O      0.702800   -0.542700    1.161500
C      2.102300   -0.527500    1.016700
C      2.702100   -1.245300    2.145400
N      3.208600   -1.800700    3.021400
C     -1.369000   -0.532100    0.093800
C     -2.506000   -0.916100    0.128200
H      1.053800    1.877300   -0.129200
H     -0.547100    1.863700   -0.882500
H     -0.406800    1.914900    0.888100
H      0.471900   -0.427400   -0.890800
H      2.417100   -1.020600    0.082300
H      2.515100    0.492700    1.002100
H     -3.507600   -1.268200    0.164600
