16
gdb_14480
C     -0.048500    1.448400    0.083800
C      0.036500   -0.045300   -0.020600
C      0.721200   -0.736100   -1.228700
C      0.465000   -2.145900   -0.722900
C      0.480600   -1.992400    0.795100
O      0.715300   -0.632500    1.096100
C     -0.836800   -2.016200    0.062200
O     -1.253600   -0.668000    0.000300
H      0.955000    1.879700    0.099200
H     -0.595500    1.852600   -0.771000
H     -0.569000    1.726600    1.002700
H      0.213100   -0.509200   -2.168400
H      1.781100   -0.481100   -1.295900
H      0.766700   -3.047800   -1.236000
H      0.846200   -2.702300    1.521900
H     -1.627400   -2.746800    0.145800
