16
gdb_11889
O      0.025900   -0.014500   -0.174100
C     -0.000300    1.189200   -0.057900
N     -1.094300    2.023000   -0.255800
C     -0.813500    3.380000    0.189200
C      0.714900    3.401600    0.124300
C      1.470300    4.301100   -0.819100
C      1.536800    4.515400    0.685500
N      1.061500    2.014500    0.306000
H     -2.006400    1.612200   -0.137600
H     -1.263000    4.130900   -0.467600
H     -1.162200    3.562700    1.216900
H      2.350200    3.897700   -1.310400
H      0.910700    5.012200   -1.418200
H      1.022400    5.373000    1.108000
H      2.459300    4.257100    1.194800
H      1.988900    1.678100    0.099200
