13
gdb_21462
N     -0.183000    1.304300    0.061800
C     -0.443500    0.131800   -0.305200
O     -0.207700   -0.896900    0.564400
C     -0.687000   -2.122000    0.234600
C     -1.834100   -2.568000   -0.388000
C     -1.697000   -3.975700   -0.358500
N     -0.575600   -4.367700    0.233700
N      0.033400   -3.211300    0.583300
H     -0.377600    1.959800   -0.692400
H     -0.835600   -0.211500   -1.268000
H     -2.649600   -1.977300   -0.769300
H     -2.384100   -4.715600   -0.742300
H      0.916700   -3.223700    1.065300
