14
gdb_12950
N     -0.142800    1.494900   -0.178000
C     -0.064400    0.089600   -0.022500
C     -0.347400   -0.836100   -1.189000
O      0.611000   -1.776200   -1.565100
C     -1.184800   -0.979200    0.047000
N     -0.454100   -1.664700    1.115400
C      0.623000   -0.747500    1.060600
O      1.643200   -0.679300    1.681200
H     -0.189800    1.959900    0.722900
H      0.675500    1.851300   -0.661700
H     -0.835200   -0.308500   -2.010600
H      0.168200   -2.475600   -2.058000
H     -2.254800   -0.829500    0.109000
H     -0.266500   -2.660400    1.069600
