19
gdb_8513
C     -0.093200    1.460900    0.055500
C      0.099600   -0.021200   -0.038900
C      0.097700   -0.877400   -1.294700
C     -0.232800   -2.037300   -0.330000
C     -1.091900   -3.197900   -0.737700
C      1.038200   -2.216600    0.532000
C      0.682800   -0.844600    1.067300
N     -0.775500   -0.990600    0.712600
H      0.792900    1.995700   -0.305400
H     -0.952000    1.784100   -0.542300
H     -0.272700    1.762400    1.092100
H     -0.759500   -0.631600   -1.929600
H      1.003600   -0.947100   -1.907800
H     -0.566800   -3.825800   -1.467300
H     -1.345900   -3.819700    0.126700
H     -2.025400   -2.853400   -1.194000
H      0.893700   -2.987100    1.295100
H      1.996900   -2.371200    0.024600
H      0.982000   -0.398400    2.009900
