17
gdb_8686
C     -0.002800    1.578000    0.095800
C     -0.047700    0.051000    0.003200
C      0.691100   -0.513600   -1.217600
O      2.039600   -0.098000   -1.162700
C      0.646200   -2.058700   -1.258500
O      1.491100   -2.546200   -2.286800
C      0.069400   -0.027200   -2.483200
N     -0.397700    0.287600   -3.493100
H      1.030100    1.931800    0.129300
H     -0.494600    2.041800   -0.764700
H     -0.514200    1.918800    1.000200
H      0.425200   -0.394000    0.885700
H     -1.085200   -0.301500   -0.025500
H      2.524300   -0.698200   -1.748600
H      1.059700   -2.431800   -0.317300
H     -0.385900   -2.416500   -1.362200
H      1.056000   -2.388400   -3.133500
