13
gdb_12588
C     -0.008000    1.460900    0.003200
N      0.008900    0.012000   -0.000300
C      0.102600   -0.774000   -1.147900
O      0.181800   -0.358600   -2.278400
C      0.083200   -2.200500   -0.673200
C     -0.015400   -2.206800    0.655800
C     -0.067400   -0.785900    1.143000
O     -0.156400   -0.387800    2.279000
H      0.910700    1.858600   -0.436300
H     -0.859600    1.838300   -0.569200
H     -0.089600    1.783600    1.041900
H      0.143800   -3.029300   -1.363900
H     -0.057000   -3.041800    1.340300
