13
gdb_5561
O      0.109400    1.416300    0.422100
C      0.045800    0.017100    0.159500
C     -1.329100   -0.504300   -0.026800
C     -2.049800   -0.950900   -1.092800
O     -1.643800   -1.061100   -2.371200
N     -3.324600   -1.304900   -0.704300
C     -3.333300   -1.060100    0.570600
O     -2.184900   -0.579800    1.061200
H     -0.336100    1.865200   -0.304300
H      0.626300   -0.257900   -0.733000
H      0.522200   -0.457200    1.023600
H     -2.383200   -1.431000   -2.868700
H     -4.147500   -1.198400    1.264600
