18
gdb_14207
C     -0.142100    1.434000   -0.012300
C      0.009000   -0.057100   -0.040000
C      0.949600   -0.895900   -0.906600
C      0.107900   -2.128300   -0.475600
C      0.403000   -2.264100    1.043600
C     -0.325100   -0.933700    1.212800
C     -1.062900   -1.102500   -0.096800
O     -2.373800   -0.963700   -0.471500
H      0.734000    1.919400    0.433200
H     -0.268600    1.836400   -1.023900
H     -1.020500    1.730100    0.570500
H      0.820500   -0.658800   -1.967200
H      2.018900   -0.915300   -0.662100
H      0.029000   -3.005400   -1.114900
H     -0.150000   -3.089500    1.502500
H      1.458000   -2.326400    1.334900
H     -0.669900   -0.455100    2.121300
H     -2.903800   -1.608300    0.011100
