16
gdb_10385
O     -0.150900    0.011200   -0.386800
C     -0.018200    1.122000    0.060700
C      1.283500    1.895900    0.044900
C      2.484600    1.109200   -0.562100
C      2.235400    1.792000   -1.931300
C      1.344800    2.841500   -1.221200
C      1.528900    2.607100    1.352400
O      0.799200    2.579000    2.310300
H     -0.875100    1.679100    0.491100
H      3.433900    1.404300   -0.106100
H      2.376300    0.025400   -0.517200
H      3.106900    2.172900   -2.466700
H      1.660400    1.152600   -2.604100
H      0.384400    3.101300   -1.673500
H      1.879900    3.767500   -0.989200
H      2.478400    3.193000    1.367900
