14
gdb_16866
O     -0.143300   -0.093500    0.251100
C     -0.036800    1.054000   -0.081600
C     -1.138100    2.092300    0.110200
C     -1.208900    3.095300   -1.028900
O     -0.674300    4.393400   -0.768400
C      0.076400    3.507600   -1.605000
C      1.298000    2.873700   -0.968500
O      1.108600    1.476500   -0.672300
H     -2.071800    1.545900    0.245500
H     -0.936000    2.637500    1.040100
H     -2.102800    3.087900   -1.648200
H      0.145900    3.810800   -2.646900
H      2.162800    2.897500   -1.633500
H      1.547900    3.415600   -0.049500
