16
gdb_7117
C     -0.148800    1.487900   -0.244800
C      0.138900    0.028400    0.045500
O      0.651900   -0.565700   -1.169200
C      0.977900   -1.864200   -1.092000
O      0.861000   -2.541400   -0.100100
C      1.508500   -2.383400   -2.413800
C      0.921100   -3.747300   -2.754400
O      0.656500   -4.092900   -3.874500
H      0.760500    2.012700   -0.550800
H     -0.890500    1.589700   -1.041800
H     -0.540400    1.972600    0.654300
H      0.882800   -0.096800    0.838200
H     -0.759500   -0.517500    0.349000
H      1.353200   -1.683400   -3.234700
H      2.590300   -2.531500   -2.285500
H      0.768100   -4.406700   -1.875900
