18
gdb_15518
C     -0.119600    1.501800    0.100200
C      0.052500    0.021400    0.015400
C      0.063600   -0.731500   -1.102000
C      0.321000   -2.199000   -0.794300
C      0.119500   -2.276600    0.737500
C      0.298900   -0.825900    1.243000
C     -0.087400   -0.262500   -2.428900
C     -0.215100    0.095000   -3.573900
H      0.756900    1.971800    0.565400
H     -0.265400    1.945700   -0.887200
H     -0.980000    1.762000    0.730100
H     -0.350600   -2.864600   -1.345600
H      1.342500   -2.472800   -1.091000
H     -0.899500   -2.612500    0.953300
H      0.801300   -2.982200    1.218500
H      1.315100   -0.645000    1.625000
H     -0.380600   -0.576000    2.066900
H     -0.326800    0.419600   -4.578300
