16
gdb_14189
C      0.056000    1.471300   -0.098700
C      0.024800   -0.018300   -0.035800
O      0.605900   -0.814800   -1.117100
C      0.122200   -1.835600   -0.201600
C      0.451000   -1.026600    1.083100
O     -0.884000   -1.143800    1.647400
C     -1.156600   -1.034200    0.213900
C     -2.559900   -1.067200   -0.289300
H      1.086300    1.836100   -0.148700
H     -0.482300    1.834400   -0.979600
H     -0.418300    1.883500    0.797300
H      0.267400   -2.886100   -0.451400
H      1.313300   -1.045600    1.748700
H     -3.142100   -0.239900    0.128100
H     -2.557600   -0.979700   -1.380200
H     -3.048700   -2.006700   -0.014500
