16
gdb_8326
O      0.201400    0.390400   -1.059200
C      0.063000    1.291200   -0.284300
C     -1.154300    2.052400    0.262800
C     -0.170800    3.136800    0.787300
C     -0.224100    4.590200    0.271300
C     -0.393300    4.958500    1.757800
O     -0.332300    3.568600    2.147300
C      1.036000    2.207500    0.473600
H     -1.924100    2.346400   -0.455500
H     -1.626200    1.516600    1.094100
H      0.692200    4.948900   -0.200900
H     -1.075200    4.823700   -0.371000
H      0.421400    5.541600    2.202100
H     -1.350800    5.416100    2.031600
H      1.411600    1.731800    1.386500
H      1.879300    2.615800   -0.089500
