18
gdb_11024
C      0.041900    1.511400    0.086300
C     -0.012100    0.020000   -0.006900
C     -0.011400   -0.742900   -1.106300
C     -0.081600   -2.222600   -0.796200
C     -0.073400   -2.266000    0.735100
C     -0.694300   -3.417600    1.476600
O      1.130900   -1.725900    1.297500
C     -0.033500   -0.867700    1.201400
H      0.945100    1.843700    0.613100
H      0.034900    1.975200   -0.903800
H     -0.812400    1.906600    0.650700
H      0.066200   -0.365500   -2.120700
H     -0.991800   -2.684700   -1.201300
H      0.767900   -2.778300   -1.212300
H     -0.168000   -4.352200    1.251600
H     -0.641500   -3.251900    2.555600
H     -1.743500   -3.547300    1.190800
H     -0.435400   -0.535300    2.155700
