12
gdb_3153
O      0.008300    0.089400   -0.311600
C      0.049400    1.238800   -0.008900
O     -0.964000    2.042000    0.462100
C     -0.100000    3.232100    0.486000
C      1.056500    2.361000    0.014600
C      2.491100    2.264400    0.370600
N      2.071200    2.665000   -0.978300
H     -0.448000    3.980900   -0.227800
H     -0.035800    3.643400    1.495000
H      2.944900    3.054900    0.961200
H      2.897700    1.268800    0.526800
H      2.156700    1.887200   -1.630300
