12
gdb_5007
N      0.001200    1.392600    0.130900
C     -0.063100    0.023400    0.039900
C     -1.189100   -0.745200    0.011100
N     -1.151400   -2.123400   -0.015000
C     -0.002300   -2.674500   -0.019900
O      1.188400   -2.023400   -0.011900
C      1.240200   -0.644800    0.008100
O      2.307500   -0.086100   -0.011800
H      0.902500    1.779100   -0.110500
H     -0.796400    1.922000   -0.182600
H     -2.178400   -0.297800    0.013600
H      0.136700   -3.749000   -0.033100
