14
gdb_1806
N      0.110400    1.059000    0.078900
H     -0.228400    0.210500   -0.358200
H      1.097000    0.947200    0.279100
H     -0.541200    2.765100   -0.539200
C     -0.658300    1.427900    1.251200
C     -1.400600    0.387300    2.069200
C     -0.195400    1.058000    2.648300
C     -1.346900    2.771200    1.128600
O     -1.122300    3.380200   -0.042800
O     -2.030800    3.248200    1.998400
H     -2.373300    0.678300    2.446500
H     -1.307600   -0.643400    1.743600
H      0.724700    0.487600    2.720100
H     -0.350800    1.803900    3.418200
