16
gdb_10935
C      0.037400    1.506300   -0.012400
C      0.057400    0.017200    0.080700
C     -0.897000   -0.865900    0.824500
C      0.594300   -0.981400    1.081100
C      1.241700   -1.664200   -0.128600
O      0.608500   -0.708300   -1.035700
C      2.692400   -1.594500   -0.179000
C      3.893300   -1.552500   -0.200800
H      1.038600    1.898000   -0.215300
H     -0.626900    1.829700   -0.821700
H     -0.330200    1.943000    0.920700
H     -1.452100   -0.391200    1.628100
H     -1.430200   -1.653600    0.298400
H      1.059600   -0.849000    2.047900
H      0.902500   -2.686500   -0.339700
H      4.954300   -1.514200   -0.230500
