18
gdb_18578
O     -0.164700    1.381100    0.764100
C     -0.035500    0.122500    0.139500
C      0.549900   -1.019200    1.021500
C     -0.855100   -1.692600    1.060900
C     -1.720700   -1.315300    2.235400
C     -2.679700   -0.443400    1.912300
C     -2.659400   -0.063700    0.446500
C     -1.356100   -0.712200   -0.052300
H     -0.574100    1.240200    1.625600
H      0.510800    0.317300   -0.786700
H      1.300900   -1.618800    0.499400
H      0.969600   -0.695500    1.979000
H     -0.866600   -2.768800    0.860200
H     -1.564400   -1.726800    3.227900
H     -3.418700   -0.051200    2.603800
H     -3.545900   -0.446500   -0.076100
H     -2.649600    1.022400    0.297600
H     -1.434500   -1.134300   -1.055600
