16
gdb_8264
C      0.271300    1.593700   -0.321800
C      0.146800    0.155600   -0.131600
C      0.049400   -1.035600    0.020300
C     -0.085900   -2.463900    0.220100
C      0.008200   -3.004800    1.693100
C     -1.275600   -3.805000    1.426500
O     -1.832300   -4.691700    2.003900
C     -1.525100   -3.083400    0.093700
H      1.050500    1.831900   -1.054200
H     -0.666400    2.030900   -0.682700
H      0.532400    2.098700    0.614900
H      0.613300   -3.006400   -0.423600
H      0.896000   -3.579800    1.966300
H     -0.151000   -2.220800    2.439500
H     -2.315300   -2.331600    0.182100
H     -1.731100   -3.714300   -0.773900
