16
gdb_12209
O      0.010600    1.367300   -0.214200
C      0.051100   -0.043900   -0.054700
C      0.255300   -0.518000    1.402600
C     -1.303200   -0.572200    1.584400
C     -1.852600    0.643700    2.150100
C     -2.277100    1.682700    2.587500
C     -1.389300   -0.630200   -0.003700
O     -2.377900    0.060100   -0.685700
H     -0.318500    1.759000    0.605500
H      0.727400   -0.420800   -0.824900
H      0.698800   -1.515200    1.451100
H      0.806600    0.153900    2.062900
H     -1.697200   -1.448900    2.104500
H     -2.678100    2.578600    2.993500
H     -1.414900   -1.679700   -0.313000
H     -2.055300    0.969800   -0.763900
