11
gdb_685
O      0.026100    0.024500   -0.024000
C      0.018300    1.216000    0.078100
C     -1.084800    2.298000    0.063800
N     -0.033000    3.352700   -0.175500
C      0.800900    3.325500    1.016500
C      1.061300    2.288300   -0.028700
H     -1.734900    2.186000   -0.807900
H     -1.690600    2.457800    0.960100
H      1.521000    4.136200    1.072100
H      0.363700    3.034700    1.969800
H      1.967700    2.272200   -0.622900
