15
gdb_15330
C     -0.365400    1.263100   -0.078500
C     -0.168800   -0.175400    0.012200
C     -0.012200   -1.367000    0.096300
C      0.193600   -2.787600    0.167400
C     -0.531500   -3.617700    1.206300
N     -0.886400   -3.713600   -0.185200
C     -2.121400   -3.325700   -0.688800
O     -3.180800   -3.582500   -0.174800
H      0.401600    1.727500   -0.707400
H     -1.341900    1.499000   -0.515000
H     -0.319300    1.734500    0.909200
H      1.178100   -3.131300   -0.143200
H     -0.028400   -4.479900    1.634800
H     -1.229900   -3.102600    1.859400
H     -2.020900   -2.813500   -1.663200
