17
gdb_12839
C     -0.129200    1.539900    0.154000
C      0.060200    0.046900    0.028300
C     -1.174400   -0.880300    0.191000
C     -0.467300   -1.618800    1.371400
C      0.813700   -0.776300    1.125700
N      1.879900   -1.485000    0.405900
C      1.775700   -1.122500   -0.806000
O      0.815700   -0.242500   -1.183500
H      0.837100    2.053100    0.163600
H     -0.719800    1.931100   -0.681000
H     -0.655900    1.777400    1.083600
H     -2.100800   -0.362100    0.450600
H     -1.356300   -1.494700   -0.693000
H     -0.930000   -1.437800    2.344600
H     -0.321500   -2.692900    1.244600
H      1.222700   -0.248400    1.991600
H      2.415700   -1.457000   -1.615700
