12
gdb_21566
N      0.059300    1.414000   -0.164900
C     -0.035700    0.041900   -0.053300
C     -1.186500   -0.682900   -0.018600
C     -1.123800   -2.122400    0.021000
O     -2.073000   -2.874900    0.059200
N      0.212500   -2.709400    0.026100
N      1.251400   -2.010600   -0.003600
N      1.146700   -0.645200   -0.031500
H      0.819800    1.850400    0.338100
H     -0.815300    1.899500   -0.024600
H     -2.155000   -0.199100   -0.012900
H      2.036400   -0.186900   -0.149100
