13
gdb_7707
N     -0.104300    1.037800   -0.784200
C      0.018200    0.059600   -0.000500
C     -1.145900   -0.519700    0.767600
C     -1.099900   -2.039000    0.819300
O     -2.040800   -2.767800    0.728600
O      0.160300   -2.546900    0.974200
C      1.189500   -1.598700    1.190000
O      1.209800   -0.591300    0.202400
H      0.795500    1.282700   -1.201700
H     -1.109700   -0.152900    1.803800
H     -2.086800   -0.190700    0.332900
H      1.086200   -1.154100    2.189200
H      2.132700   -2.137200    1.111500
