11
gdb_497
O      0.055400    0.212900   -0.915700
C      0.048900    1.255900   -0.298100
N      1.121200    1.786900    0.349500
C      2.439800    1.166500    0.298200
C      3.486300    2.119700   -0.055200
C      4.343300    2.918800   -0.320000
H     -0.850600    1.892400   -0.189500
H      1.030000    2.685000    0.796700
H      2.681200    0.692900    1.259500
H      2.367300    0.364200   -0.443000
H      5.106800    3.613800   -0.569200
