10
gdb_1015
N      0.113000   -1.120500   -0.005100
C      0.006400    0.032300    0.002800
C     -0.068000    1.449100    0.011800
N     -1.166400    2.182900    0.030100
C     -0.734000    3.477900    0.031900
C      0.641500    3.533400    0.014600
N      1.057300    2.231600    0.001700
H     -1.430300    4.301900    0.045600
H      1.338100    4.355000    0.010400
H      2.008700    1.900700   -0.012600
