20
gdb_19156
C      0.029300    1.323400    0.202300
O     -0.140000   -0.023600   -0.165700
C      0.615700   -0.532000   -1.236600
C      0.531900    0.090100   -2.607300
C      1.817100    0.185900   -1.799100
C      0.669900   -2.029700   -1.144200
C      0.809000   -2.722500    0.187300
C     -0.486500   -2.817200   -0.583200
H      1.039100    1.526300    0.584200
H     -0.180800    2.019900   -0.622700
H     -0.691000    1.515700    1.001300
H      0.495200   -0.569200   -3.467800
H     -0.044900    1.001600   -2.722200
H      2.083700    1.163000   -1.414500
H      2.670200   -0.416100   -2.093700
H      1.197400   -2.480900   -1.979500
H      1.446400   -3.598000    0.245800
H      0.809500   -2.096600    1.071500
H     -1.329400   -2.254200   -0.201700
H     -0.741500   -3.758200   -1.058300
