17
gdb_6944
C     -0.012200    1.532800    0.005800
C     -0.001000   -0.001600    0.008700
C     -1.425500   -0.567800   -0.059100
N      0.788900   -0.497400   -1.145400
C      1.757500   -1.164900   -0.657100
N      1.806900   -1.241200    0.730300
C      0.728800   -0.531100    1.254700
N      0.376500   -0.330600    2.458300
H      1.006700    1.930300    0.017000
H     -0.513600    1.900400   -0.893400
H     -0.535900    1.898400    0.893000
H     -1.928900   -0.204100   -0.958800
H     -1.409600   -1.660900   -0.093300
H     -1.987200   -0.257600    0.826000
H      2.523300   -1.662200   -1.244800
H      2.504200   -1.725800    1.270300
H      1.007500   -0.775900    3.126700
