15
gdb_14284
C     -0.070900    1.567500    0.000300
C      0.040100    0.061800   -0.049500
C      0.670000   -0.708400   -1.207700
N      1.627400   -0.031100   -2.024100
C      2.684600    0.468600   -1.291500
O      3.578300    1.176100   -1.659300
O      2.550300    0.021800    0.005600
C      1.337200   -0.688300    0.143200
H      0.786900    2.063700   -0.458300
H     -0.971700    1.905200   -0.522400
H     -0.132600    1.913700    1.036700
H     -0.802600   -0.471400    0.385600
H      0.195900   -1.586600   -1.630900
H      1.411900    0.400900   -2.906900
H      1.425500   -1.540600    0.804600
