13
gdb_18316
O     -0.224500   -0.063600    0.019700
C     -0.087400    1.122400    0.025300
C     -1.217100    2.214600    0.043300
N     -0.635600    3.388400    0.734700
C      0.610700    3.208000    0.624900
O      1.699300    3.605000    1.350600
C      2.303200    2.273600    1.082300
C      1.199300    1.986700    0.022300
H     -1.532000    2.433900   -0.986100
H     -2.094400    1.850400    0.585000
H      3.319500    2.374300    0.701400
H      2.270100    1.665300    1.988100
H      1.568800    2.070000   -1.003300
