19
gdb_8678
C      0.041500    1.563000   -0.079200
C     -0.039400    0.036600    0.002000
C     -1.482900   -0.513800    0.074800
C     -2.243100   -0.014800    1.318200
O     -2.101600   -0.118600   -1.140200
C     -3.427700   -0.567100   -1.364600
C     -1.402500   -1.999400    0.132000
N     -1.347600   -3.153200    0.172600
H      1.080000    1.871400   -0.229600
H     -0.551200    1.938400   -0.916300
H     -0.313100    2.044100    0.837100
H      0.426900   -0.405800   -0.883600
H      0.511600   -0.334200    0.872800
H     -2.412200    1.061000    1.234400
H     -3.208000   -0.514200    1.426900
H     -1.660200   -0.213900    2.221300
H     -3.678500   -0.272600   -2.385600
H     -3.506600   -1.658900   -1.279500
H     -4.146600   -0.101800   -0.678000
