17
gdb_13696
C     -0.445700    1.009100   -0.093100
N      0.335400   -0.200000    0.067400
C      0.609000   -0.854400   -0.967800
O      1.353300   -1.989800   -0.880000
C      1.542800   -2.678000   -2.096800
C      1.872700   -4.138600   -1.936800
C      0.501400   -3.721500   -2.417800
O     -0.620500   -3.838700   -1.603000
H      0.117300    1.862900    0.300300
H     -0.724600    1.228300   -1.136400
H     -1.363800    0.933200    0.500300
H      0.302300   -0.595000   -1.991600
H      2.021600   -2.089900   -2.875700
H      2.570200   -4.588600   -2.634400
H      1.947700   -4.499100   -0.916100
H      0.240200   -3.896100   -3.456200
H     -0.400800   -3.459800   -0.742900
