19
gdb_12823
C     -0.007400    1.515700   -0.022800
C      0.006800    0.004200    0.035400
C     -1.216000   -0.681000   -0.584900
O     -1.773000   -1.729300    0.188200
C     -0.804400   -2.665300    0.614600
C      0.147000   -2.034200    1.635500
C      0.700300   -0.711900    1.142700
N      1.341000   -0.601900   -0.179400
H      0.927000    1.919600    0.374400
H     -0.110200    1.867100   -1.056500
H     -0.842900    1.923900    0.556700
H     -2.021700    0.048300   -0.709100
H     -0.954000   -1.054800   -1.591600
H     -1.351700   -3.499100    1.062900
H     -0.249200   -3.067400   -0.251900
H     -0.406200   -1.854900    2.565100
H      0.961700   -2.730100    1.874000
H      1.194200   -0.113300    1.906900
H      1.252100   -1.480200   -0.687500
