12
gdb_21769
O     -0.001500   -0.084300   -0.351800
C     -0.015000    1.116500   -0.136000
C     -1.274300    1.841000    0.088900
C     -1.494500    3.176400    0.095500
N     -0.693200    4.256600   -0.259400
N      0.573800    4.273900   -0.276200
C      1.413300    3.216100    0.057000
C      1.229600    1.875200    0.055800
H     -2.131400    1.189700    0.244000
H     -2.510800    3.515300    0.280000
H      2.424600    3.582600    0.214600
H      2.107800    1.247500    0.187800
