11
gdb_427
N      0.066900    1.499800    0.171200
C     -0.023600    0.069200    0.004500
C     -1.426000   -0.554600   -0.156800
O     -1.010000   -1.203400   -1.400300
C      0.226700   -0.601500   -1.369800
O      1.076800   -0.639700   -2.199500
H      1.035900    1.782200    0.274800
H     -0.292200    1.983900   -0.646700
H      0.564400   -0.420300    0.786000
H     -1.736400   -1.291200    0.586000
H     -2.224600    0.167800   -0.342200
