13
gdb_9570
C     -0.054500    1.542100   -0.044500
C     -0.037300    0.032900    0.050300
O      1.239500   -0.596700   -0.161800
C      0.691500   -0.668400    1.149600
C      1.368300    0.075300    2.190200
N      1.890600    0.659000    3.040200
C     -1.165700   -0.653700   -0.533600
C     -2.118700   -1.195400   -1.025000
H      0.822100    1.968800    0.446300
H     -0.055100    1.842300   -1.095800
H     -0.958000    1.939600    0.425800
H      0.342600   -1.652500    1.455300
H     -2.957200   -1.681300   -1.461000
