19
gdb_14153
C     -0.159200    1.428000   -0.137500
N      0.061500    0.002000    0.034600
C      1.426800   -0.489600   -0.131300
C      0.778300   -0.490200    1.208500
C      1.270100    0.378400    2.373700
C      0.650000   -0.333100    3.586700
O      0.605400   -1.706400    3.228300
C      0.205300   -1.753700    1.867600
H      0.696100    2.059000    0.155700
H     -0.374100    1.624900   -1.192700
H     -1.031300    1.739000    0.447400
H      1.540000   -1.412600   -0.696500
H      2.213800    0.246100   -0.302800
H      2.362000    0.354900    2.437700
H      0.960600    1.423400    2.295500
H      1.237600   -0.242000    4.503400
H     -0.365000    0.051100    3.784300
H     -0.891800   -1.742800    1.771000
H      0.583600   -2.684300    1.435500
