14
gdb_4800
C     -0.099900    1.372800    0.019000
O     -0.053700   -0.055900   -0.015500
C     -1.213300   -0.698200   -0.016800
N     -1.351600   -1.984900   -0.050900
C     -2.731400   -2.163700   -0.031800
N     -3.247300   -3.449100   -0.124800
C     -3.353700   -0.958600    0.017900
O     -2.347600    0.015300    0.025400
H      0.940200    1.697600    0.012700
H     -0.622200    1.769200   -0.856700
H     -0.598400    1.727300    0.926000
H     -2.587200   -4.138700    0.208300
H     -4.151900   -3.566700    0.308900
H     -4.366300   -0.602200    0.037200
