16
gdb_2262
C      0.028400    1.525700    0.041900
C     -0.034000    0.030300   -0.046800
C     -0.878800   -0.816200    0.820500
N      0.584700   -0.905300    0.994900
C      1.040700   -1.796900   -0.128400
C      0.513000   -0.801000   -1.199800
O     -0.470700   -1.216200   -2.122900
H      1.018300    1.901500   -0.239100
H     -0.709200    1.981300   -0.628900
H     -0.184800    1.863100    1.060200
H     -1.374900   -0.323000    1.651100
H     -1.416500   -1.664500    0.404200
H      2.127200   -1.908300   -0.112900
H      0.568300   -2.785000   -0.127800
H      1.338300   -0.284300   -1.707700
H     -0.035700   -1.694700   -2.835900
