14
gdb_7903
O      0.183100    1.218300   -0.562100
C      0.055300   -0.056400    0.035400
C      0.507800   -0.111400    1.512000
C     -0.330700   -1.212200    2.145500
O     -0.112000   -1.840500    3.143600
C     -1.576900   -1.414800    1.222200
O     -2.451300   -2.210000    1.427200
C     -1.431100   -0.443600    0.062000
H      1.120200    1.424100   -0.644700
H      0.613800   -0.810900   -0.539500
H      1.578000   -0.267700    1.665200
H      0.231800    0.839300    1.989900
H     -2.013400    0.458800    0.296900
H     -1.814000   -0.849800   -0.875400
