18
gdb_15155
C     -0.030200    1.456600   -0.073200
C     -0.107800    0.011600    0.080900
C     -0.178100   -1.183300    0.202600
C     -0.242200   -2.627800    0.370000
O     -1.280500   -3.167600   -0.440000
C     -1.393400   -4.549600   -0.304100
C     -2.194200   -5.114000    0.843700
C     -2.741200   -5.131200   -0.571300
H      0.962300    1.769600   -0.415500
H     -0.760600    1.810400   -0.809200
H     -0.235700    1.972000    0.871400
H      0.724800   -3.082000    0.094700
H     -0.418700   -2.881200    1.427700
H     -0.513500   -5.106600   -0.631300
H     -1.877500   -6.047200    1.296400
H     -2.636000   -4.399400    1.529300
H     -3.530400   -4.425200   -0.802800
H     -2.801900   -6.075100   -1.100900
