11
gdb_23672
F     -0.001800    0.027600    0.003200
C     -0.021400    1.355700    0.010700
C     -1.237500    2.016200    0.030900
C     -1.169300    3.407000    0.037500
F     -2.312300    4.082900    0.057000
N     -0.069300    4.124500    0.026600
C      1.086600    3.448300    0.007200
C      1.176300    2.063400   -0.001600
H     -2.180400    1.486900    0.040800
H      1.989800    4.051700   -0.001700
H      2.127300    1.547500   -0.017400
