17
gdb_20154
C     -0.030900    1.597400    0.007200
C      1.496300    1.757800    0.024900
C      1.887500    0.904800    1.241600
C      2.389100   -0.192900    0.388400
C      2.041300    0.565100   -0.902100
C      0.777900   -0.173000   -1.368800
C      0.026200    0.057600   -0.042800
N      1.049700   -0.304300    1.024500
H     -0.496500    1.986200    0.918000
H     -0.531400    2.028800   -0.864900
H      1.933600    2.745700   -0.102200
H      2.131800    1.213600    2.252100
H      3.128700   -0.968200    0.556400
H      2.826000    0.792500   -1.620300
H      0.268500    0.278000   -2.225600
H      0.972400   -1.228800   -1.580800
H     -0.901600   -0.489900    0.116300
