18
gdb_10753
C      0.282300    1.407100    0.248600
C     -0.017400   -0.091300    0.099900
O      0.562400   -0.713900    1.242400
C     -1.542300   -0.251800    0.177600
O     -2.287300   -0.296900   -0.765200
C      0.514500   -0.636400   -1.218100
C      1.988400   -0.843200   -1.428900
C      1.064700   -2.034600   -1.345600
H      1.364600    1.551100    0.300000
H     -0.112600    1.962300   -0.605800
H     -0.162400    1.802500    1.166800
H      0.353000   -1.654000    1.214300
H     -1.912600   -0.307700    1.228400
H     -0.063200   -0.284100   -2.065900
H      2.417500   -0.579200   -2.388800
H      2.638800   -0.674200   -0.577600
H      1.148200   -2.658200   -0.461200
H      0.834300   -2.587200   -2.249200
