13
gdb_20715
C     -0.002800    1.490300   -0.070900
C      0.001800   -0.000500    0.051300
N     -0.062300   -0.774300   -1.036800
N     -0.038200   -2.031100   -0.581900
C      0.040800   -2.096500    0.778200
C      0.068000   -0.785600    1.223000
C      0.079400   -3.325800    1.476300
N      0.110100   -4.340700    2.033500
H      0.907700    1.926700    0.352600
H     -0.066000    1.775200   -1.122800
H     -0.853700    1.930100    0.459500
H     -0.077100   -2.800800   -1.229900
H      0.127600   -0.458500    2.247900
