15
gdb_6325
N      0.255400    0.526300    0.815500
C     -0.108000    0.142600   -0.438300
O      0.336900    0.641100   -1.453400
C     -1.182100   -0.953700   -0.483600
C     -0.840000   -2.215900    0.339400
O     -0.760100   -1.952300    1.720200
C     -1.894600   -3.276700    0.090000
O     -2.566800   -3.718100    0.990600
H      1.012900    1.184700    0.899800
H     -0.018100   -0.030200    1.611700
H     -2.129000   -0.544700   -0.111200
H     -1.309300   -1.212700   -1.537400
H      0.123000   -2.616900   -0.018100
H     -1.474500   -2.470400    2.127500
H     -2.025000   -3.609300   -0.958400
