19
gdb_1625
C      0.050400    1.548400   -0.019600
C      0.013000    0.015200    0.042000
C      0.769800   -0.486400    1.281900
C     -1.433200   -0.543900    0.015700
C     -2.255600   -0.070000   -1.198500
C     -1.396800   -2.059900   -0.025600
O     -1.925700   -2.798800    0.763800
H      1.082800    1.905700    0.051500
H     -0.368700    1.939200   -0.950300
H     -0.509400    1.988400    0.814200
H      0.527900   -0.369900   -0.851300
H      0.786600   -1.579100    1.341800
H      1.806700   -0.136200    1.272900
H      0.300100   -0.115400    2.200100
H     -1.949800   -0.261300    0.940800
H     -3.246500   -0.534200   -1.202000
H     -2.396700    1.012800   -1.180600
H     -1.758200   -0.329800   -2.140200
H     -0.832200   -2.468300   -0.900500
