14
gdb_20465
C      0.218000    1.507900    0.073600
O      1.209000    0.485700   -0.051800
C     -0.166100    0.084000    0.010300
C     -0.544700   -0.676900    1.215700
C     -1.682200   -1.377300    1.569900
C     -1.413400   -1.852300    2.871600
N     -0.205800   -1.489300    3.296200
N      0.296400   -0.769600    2.276500
H      0.191000    2.019400    1.033900
H      0.086500    2.139100   -0.803800
H     -0.576100   -0.287400   -0.927600
H     -2.572900   -1.515100    0.978500
H     -2.049500   -2.445500    3.512100
H      1.244100   -0.430400    2.306000
