16
gdb_17107
O      0.128100    1.364000    0.054000
C      0.001400   -0.044100    0.116200
C     -1.411800   -0.515200    0.081800
C     -2.574000    0.144400    0.106500
C     -3.584300   -1.012900    0.003000
C     -3.022200   -2.017900    1.053200
C     -1.906100   -1.977700   -0.032500
O     -2.968200   -1.854500   -1.033700
H     -0.303800    1.652000   -0.757500
H      0.574000   -0.539800   -0.687700
H      0.482400   -0.346400    1.056500
H     -2.782500    1.200200    0.189300
H     -4.643700   -0.810000   -0.145800
H     -2.796500   -1.657300    2.058900
H     -3.561700   -2.967800    1.063000
H     -1.196600   -2.784700   -0.215400
