16
gdb_14926
N     -0.032300   -1.149600   -0.044900
C      0.015300    0.004300   -0.030400
C      0.001600    1.470300    0.021200
C     -0.755000    1.987100    1.269900
N     -0.674300    3.437000    1.391400
C      0.709000    3.909400    1.280100
C      1.418700    3.348600    0.047300
O      1.344300    1.925200    0.021400
H     -0.518300    1.837100   -0.882300
H     -1.802500    1.674800    1.230200
H     -0.298600    1.531200    2.156000
H     -1.245500    3.875300    0.674000
H      0.714400    5.004000    1.260300
H      1.249800    3.589900    2.179700
H      0.966700    3.762200   -0.871000
H      2.485100    3.590800    0.045100
