15
gdb_12999
O      0.185500    1.344600   -0.362500
C     -0.012000    0.009700   -0.067700
C     -0.454900   -0.977600   -1.142800
C     -1.342100   -0.734900    0.037200
N     -1.289600   -1.748000    1.088400
C      0.115600   -1.824700    1.541200
C      0.816700   -0.563500    1.021500
O      1.814400   -0.033300    1.456300
H      1.009400    1.583000    0.090400
H     -0.749800   -0.489900   -2.065500
H      0.046200   -1.932900   -1.265700
H     -2.294100   -0.237500   -0.102000
H     -1.859000   -1.427900    1.864600
H      0.190400   -1.880800    2.629000
H      0.617200   -2.714400    1.138100
