18
gdb_6030
C      0.004400    1.483300   -0.246900
C     -0.054900   -0.028000   -0.036900
O      0.567800   -0.399600    1.197500
C     -1.499500   -0.575000    0.094200
C     -1.498300   -2.113600    0.158100
O     -2.120100   -0.012900    1.240100
C     -2.346600   -0.142400   -1.097900
O     -2.045300   -0.349300   -2.245400
H      1.043300    1.831900   -0.218300
H     -0.404000    1.759200   -1.222800
H     -0.561300    1.998900    0.533600
H      0.429500   -0.540800   -0.878700
H      1.387200    0.096500    1.284100
H     -0.848700   -2.447800    0.970300
H     -2.511900   -2.479100    0.343800
H     -1.137800   -2.534700   -0.784400
H     -1.471800   -0.096300    1.951500
H     -3.288200    0.375000   -0.811300
