18
gdb_9640
C      0.242300    1.446100    0.201200
C     -0.150000   -0.002500   -0.114400
C      0.564400   -0.543200   -1.333800
C      1.952000   -1.115300   -1.243600
C      0.790400   -2.054500   -1.509000
N      0.434800   -3.038500   -0.518100
C      0.652700   -2.545400   -2.865900
N      0.518400   -2.910800   -3.955200
H      1.316400    1.530600    0.395400
H      0.003600    2.111100   -0.635300
H     -0.291200    1.813800    1.082800
H      0.064800   -0.638600    0.751900
H     -1.234200   -0.061100   -0.275800
H      0.341000   -0.015900   -2.257500
H      2.656900   -0.935200   -2.046100
H      2.405300   -1.199300   -0.259800
H      0.933800   -2.896700    0.349800
H     -0.560600   -3.038200   -0.323700
