13
gdb_271
N     -0.115500    0.959500   -0.041800
H     -0.325700   -0.036000    0.058800
H      0.889900    1.042800   -0.203700
H     -0.615200    1.317600   -0.861700
C     -0.513100    1.675500    1.284700
C      0.163300    1.075900    2.475500
C     -0.829500    1.311800    3.767800
O     -2.029300    1.341700    3.437500
O     -0.229500    1.387700    4.833900
H     -0.283700    2.729400    1.114600
H     -1.591900    1.527700    1.411600
H      0.226400   -0.017300    2.383200
H      1.159600    1.474900    2.673900
