17
gdb_16674
O     -0.175000    1.242200    0.994700
C      0.069600    0.109400    0.178500
C      0.882200   -0.942500    0.948500
N     -0.041900   -1.950800    1.517800
C     -1.133000   -1.360000    2.304900
C     -1.350100   -1.741000    0.876900
C     -1.270600   -0.627000   -0.152400
O     -2.380200    0.268300   -0.154300
H     -0.973500    1.648400    0.627400
H      0.583200    0.415500   -0.743800
H      1.557700   -1.471600    0.268300
H      1.483100   -0.480200    1.736100
H     -1.523200   -2.004800    3.087200
H     -1.066900   -0.305300    2.554400
H     -1.923200   -2.630600    0.631800
H     -1.221500   -1.051800   -1.160700
H     -2.782200    0.221400    0.719800
