14
gdb_7899
C     -0.139400    1.541400    0.214100
C      0.084200    0.072900   -0.065800
O      0.997300   -0.107900   -1.146400
C      2.035400   -0.903900   -0.748300
N      2.996800   -1.291700   -1.460300
C      1.814000   -1.213000    0.696800
N      2.552900   -1.911400    1.436800
O      0.658600   -0.580700    1.064300
H      0.809300    2.023600    0.462800
H     -0.568100    2.023900   -0.667900
H     -0.831900    1.656100    1.051900
H     -0.851500   -0.441900   -0.319200
H      2.911300   -0.937100   -2.414100
H      2.176100   -1.963500    2.384600
