17
gdb_5254
C     -0.062300    1.539900    0.008700
C     -0.053300    0.019000   -0.104000
N     -1.361400   -0.530600    0.206400
C     -1.545800   -1.900800    0.091900
C     -0.613400   -2.914600    0.105800
N     -1.363400   -4.081000    0.016000
C     -2.666500   -3.720500   -0.058500
N     -2.817700   -2.413900   -0.017000
H      0.930700    1.948500   -0.198600
H     -0.760600    1.983000   -0.710800
H     -0.365800    1.852600    1.012000
H      0.295500   -0.284900   -1.107300
H      0.668400   -0.395600    0.612200
H     -2.133200   -0.023100   -0.205800
H      0.459600   -2.929200    0.173900
H     -0.998700   -5.017500   -0.000500
H     -3.464500   -4.442800   -0.143300
