13
gdb_21084
C     -0.032500    1.449500   -0.013500
N     -0.007600   -0.009900   -0.015500
N     -0.047300   -0.611500   -1.194800
C     -0.024500   -1.918100   -1.187500
C      0.039800   -2.635100    0.039700
N      0.079300   -2.057800    1.202800
C      0.057300   -0.668500    1.244500
O      0.089100   -0.005300    2.256300
H      0.865900    1.833000    0.475700
H     -0.082700    1.778000   -1.050100
H     -0.898200    1.802700    0.551600
H     -0.056900   -2.411200   -2.151100
H      0.057800   -3.725300    0.021300
