13
gdb_1210
C     -0.094600    1.477000   -0.092100
C     -0.019500   -0.032600   -0.224200
O      0.838300   -0.602000   -0.869100
N     -1.012400   -0.717900    0.437500
C     -1.136900   -2.154400    0.307000
C     -2.404500   -2.555100   -0.317500
N     -3.416600   -2.858800   -0.784200
H      0.917500    1.881800   -0.120300
H     -0.645000    1.882400   -0.947600
H     -0.595500    1.801200    0.824000
H     -1.740500   -0.210900    0.913100
H     -0.296100   -2.478100   -0.314900
H     -1.052300   -2.656500    1.278200
