14
gdb_19344
O     -0.114900    0.012800    0.000300
C     -0.001500    1.218400   -0.031300
C      1.273100    1.923400    0.028600
C      1.419400    3.397600    0.364300
C      1.775800    2.976000   -1.013300
C      3.124600    2.195800   -1.062100
O      3.693600    2.150500    0.250900
C      2.656400    1.219800   -0.085100
H     -0.891200    1.883400   -0.123700
H      0.478800    3.931100    0.459400
H      2.194500    3.682800    1.064000
H      1.233800    3.289800   -1.895300
H      3.789600    2.108200   -1.911500
H      2.842200    0.161500    0.036100
