17
gdb_20256
C     -0.034200    1.574700    0.019600
C      1.512700    1.504000    0.012800
C      2.060700    1.480000    1.447300
C      1.769300    0.050800    1.868700
C      0.509500   -0.639500    1.348300
C      1.858600   -0.833700    0.670300
N      1.440000    0.039700   -0.468300
C      0.019500    0.039900    0.064000
H     -0.508200    2.105400    0.848700
H     -0.444600    1.932500   -0.927700
H      2.053800    2.167200   -0.663700
H      3.141900    1.660800    1.476900
H      1.578700    2.238500    2.072800
H      2.139100   -0.324600    2.817100
H     -0.053400   -1.321600    1.974800
H      2.499900   -1.695600    0.532800
H     -0.711400   -0.544700   -0.501900
