11
gdb_3873
N     -0.034100    1.339800    0.142400
C     -0.037200   -0.034300    0.022100
N     -1.115000   -0.798000   -0.064200
C     -0.576700   -2.053100   -0.076300
O     -1.345600   -3.147900   -0.156000
N      0.733000   -2.138000   -0.015000
N      1.071100   -0.798200    0.044300
H      0.720900    1.812400   -0.334600
H     -0.933000    1.735700   -0.095000
H     -2.258200   -2.838100   -0.188000
H      2.031100   -0.535000    0.182200
