15
gdb_9467
C      0.011300    1.740300   -0.215700
C      0.052600    0.228400    0.002900
N      1.099400   -0.522300   -0.730400
C      1.615200   -1.177900    0.505800
C      0.728800   -0.244700    1.330300
O      0.619300    0.066000    2.475000
C     -1.330000   -0.387800   -0.129500
O     -1.549200   -1.389600   -0.763000
H      1.005300    2.166700   -0.065400
H     -0.312300    1.976600   -1.234100
H     -0.680100    2.209900    0.490900
H      0.668100   -1.191200   -1.363900
H      1.332200   -2.231400    0.632400
H      2.693900   -1.078200    0.664500
H     -2.138100    0.153100    0.406300
