13
gdb_4141
O     -0.066500    1.384500   -0.065900
N      0.075700   -0.017800   -0.026500
C     -1.039300   -0.589500    0.058400
C     -2.554700   -0.425500    0.063800
O     -2.592900   -1.530200   -0.934400
C     -1.594900   -2.000700    0.069400
C     -2.605900   -1.555200    1.157700
O     -2.095400   -1.352800    2.434900
H      0.849800    1.674400   -0.132000
H     -3.185700    0.443000   -0.107200
H     -1.111200   -2.960800   -0.093100
H     -3.542400   -2.122200    1.117800
H     -2.792900   -1.000500    2.996600
