12
gdb_16483
O     -0.060900    1.367700    0.137000
C      0.094300    0.013200    0.087700
C     -0.167300   -0.854900   -1.153200
O      0.540200   -2.087400   -1.007400
C      0.039700   -2.104200    0.365400
C     -1.063900   -1.056700    0.008500
C      0.795100   -0.920700    1.037500
O      1.438200   -0.790800    2.037200
H      0.570600    1.781800   -0.462200
H     -0.332300   -0.434400   -2.137900
H     -0.068500   -3.088500    0.810500
H     -2.113400   -0.935900    0.229200
