18
gdb_15947
O     -0.069400    1.420700    0.167200
C      0.006500    0.000200    0.173200
C     -1.394100   -0.523500    0.005900
C     -2.394900   -0.371400    1.189100
C     -2.733100   -1.893900    1.105500
C     -1.784600   -2.028000   -0.107100
O     -2.445300   -1.801900   -1.367800
C     -2.060300   -0.405400   -1.377400
H      0.820000    1.772200    0.270000
H      0.643700   -0.369900   -0.646900
H      0.435900   -0.372700    1.117900
H     -1.911200   -0.078400    2.123900
H     -3.223300    0.316800    1.005600
H     -2.404000   -2.460700    1.981000
H     -3.769000   -2.157400    0.882000
H     -1.085700   -2.869400   -0.148700
H     -2.923400    0.266700   -1.453000
H     -1.365000   -0.188500   -2.199200
