20
gdb_12222
C     -0.256600    1.353200   -1.137800
C      0.121000   -0.071800   -0.744200
C      1.469000   -0.576600   -1.337400
C      2.144400   -0.500200    0.066800
C      3.094000    0.654700    0.236500
O      4.104400    0.620000    0.892900
C      0.710800   -0.284600    0.691400
C      0.506400    0.757200    1.784700
H      0.568100    2.058500   -0.987100
H     -0.527600    1.393400   -2.198400
H     -1.113300    1.716600   -0.560600
H     -0.729000   -0.727700   -0.955700
H      1.429600   -1.597900   -1.721300
H      1.911800    0.061200   -2.109200
H      2.656000   -1.399700    0.414800
H      2.804200    1.588200   -0.302800
H      0.376400   -1.254900    1.071600
H      0.787400    1.765200    1.465900
H     -0.543400    0.790600    2.095700
H      1.106500    0.512200    2.667400
