14
gdb_4560
C     -0.041600    1.433300    0.031000
N     -0.031600   -0.010500    0.014500
C     -1.150000   -0.856800    0.041900
C     -0.693500   -2.123000    0.043700
O     -1.364100   -3.296900    0.138300
N      0.700600   -2.072800   -0.006600
C      1.142500   -0.749700    0.006800
O      2.289200   -0.341100    0.011000
H      0.999500    1.759800    0.018500
H     -0.556700    1.838500   -0.847100
H     -0.528100    1.817800    0.934400
H     -2.158500   -0.483500    0.044700
H     -1.283000   -3.786100   -0.689900
H      1.323400   -2.845400    0.154000
