21
gdb_6928
C      0.027200    1.533600   -0.213700
C      0.068900    0.028600   -0.021300
C     -1.167500   -0.695200   -0.518600
C      1.386200   -0.669100   -0.052900
N      0.641500   -0.549000    1.204200
C      1.191000    0.312200    2.250300
C      1.752300   -0.567600    3.367300
O      2.749500   -1.456200    2.895500
H      0.949500    2.024200    0.104100
H     -0.128800    1.771200   -1.271300
H     -0.805500    1.975900    0.346200
H     -1.298000   -0.551200   -1.597200
H     -1.094700   -1.766000   -0.314900
H     -2.066900   -0.316700   -0.019100
H      1.472600   -1.671800   -0.466700
H      2.280400   -0.057600   -0.166500
H      1.986400    0.978800    1.882200
H      0.388300    0.939500    2.658000
H      2.226200    0.057600    4.131700
H      0.924500   -1.115800    3.842500
H      2.314700   -2.024300    2.250200
