16
gdb_6947
C     -0.109500    1.566600    0.017900
C     -0.015700    0.042600   -0.058000
O     -1.316500   -0.548100   -0.002700
C      0.808500   -0.485700   -1.208600
C      1.824800   -1.255000   -0.817000
C      1.911400   -1.399100    0.678600
C      0.753900   -0.525400    1.174500
O      0.477900   -0.283500    2.316900
H      0.880800    2.031700    0.001500
H     -0.675500    1.958000   -0.836300
H     -0.618100    1.849400    0.943100
H     -1.859700   -0.124600   -0.676500
H      0.562800   -0.255300   -2.240300
H      2.527600   -1.739500   -1.485700
H      1.784000   -2.432600    1.026200
H      2.857800   -1.047300    1.108000
