15
gdb_14929
N      0.021000   -1.153900    0.001300
C      0.001900    0.001900    0.001600
C     -0.007500    1.459500    0.026800
C     -0.722400    2.002200    1.288600
O     -0.630600    3.412000    1.314400
C      0.706200    3.842000    1.288800
O      1.372800    3.445700    0.117800
C      1.428500    2.038400    0.003900
H     -0.540800    1.829500   -0.855800
H     -1.783500    1.746100    1.282600
H     -0.260500    1.562300    2.187000
H      0.692500    4.932500    1.296600
H      1.242100    3.452700    2.175100
H      2.011400    1.600600    0.830100
H      1.932400    1.808600   -0.936700
