13
gdb_20623
C     -0.013700    1.535700    0.062800
C      0.012400    0.041600    0.001900
C      0.001100   -0.797900   -1.083200
O      0.036900   -2.085900   -0.675300
N      0.072700   -2.120700    0.698500
C      0.058300   -0.870100    1.093700
C     -0.041600   -0.525000   -2.522900
O     -0.045800   -1.369600   -3.385300
H      0.888300    1.923700    0.548200
H     -0.076900    1.984000   -0.930600
H     -0.871800    1.888500    0.644500
H      0.080800   -0.652000    2.152400
H     -0.070400    0.558300   -2.763700
