17
gdb_9062
C     -0.094100    1.548500   -0.070600
C     -0.005700    0.013500   -0.007000
C      0.762900   -0.501700    1.228200
C      2.253000   -0.101500    1.224500
C      2.970400   -0.651400    2.372700
N      3.521000   -1.092400    3.287800
C     -1.412500   -0.560100    0.032700
O     -1.874300   -1.314200   -0.782000
H      0.896900    2.005500   -0.136900
H     -0.661400    1.869400   -0.949100
H     -0.591100    1.952300    0.818800
H      0.464400   -0.374100   -0.917900
H      0.292700   -0.125400    2.144500
H      0.697900   -1.594200    1.266900
H      2.737300   -0.457600    0.307800
H      2.367400    0.987000    1.241000
H     -2.015900   -0.217800    0.907800
