13
gdb_4712
N      0.106700    1.330400    0.150500
C     -0.063500   -0.024500    0.049200
C     -1.185300   -0.826100    0.016500
C     -0.692700   -2.152800   -0.013800
C      0.678200   -2.088000   -0.000100
O      1.058800   -0.756400    0.038600
C      1.687600   -3.113500   -0.025100
O      2.890200   -2.940800   -0.017200
H      1.010300    1.666200   -0.150500
H     -0.663200    1.890200   -0.181100
H     -2.211200   -0.495900    0.019500
H     -1.274200   -3.062100   -0.044700
H      1.240500   -4.132900   -0.055000
