19
gdb_16915
O     -0.093700    1.442800   -0.017600
C      0.020700    0.026400    0.011300
C      0.798800   -0.482900    1.224600
C      0.918500   -2.014800    1.160400
N     -0.322000   -2.747300    0.904700
C     -1.481600   -2.502400    1.750200
C     -1.467600   -2.024300    0.335000
C     -1.406000   -0.524300    0.036700
H      0.795300    1.811700   -0.036500
H      0.528400   -0.332900   -0.900800
H      1.807300   -0.049500    1.242800
H      0.294200   -0.149500    2.139800
H      1.607500   -2.274500    0.345800
H      1.359500   -2.408500    2.082700
H     -2.042700   -3.388100    2.039000
H     -1.422300   -1.737500    2.523600
H     -2.010800   -2.612900   -0.401100
H     -1.956700    0.044500    0.794700
H     -1.891200   -0.317200   -0.920900
