16
gdb_18058
C      0.073300    1.539700    0.168400
O      1.486100    1.517700   -0.132400
C      1.414900    0.133600   -0.529700
C      2.481100   -0.756400    0.082400
O      2.203200   -1.076400    1.436800
C      0.901500   -1.568400    1.569600
O     -0.071500   -0.576900    1.352300
C     -0.014700    0.009500    0.063700
H     -0.137500    1.942800    1.162800
H     -0.499100    2.083900   -0.594000
H      1.432000    0.039700   -1.625300
H      2.559000   -1.682300   -0.512700
H      3.448000   -0.246200    0.062000
H      0.746700   -2.419900    0.879000
H      0.778600   -1.896600    2.603100
H     -0.789600   -0.415800   -0.584000
