16
gdb_18115
C      0.220700    1.261400    0.377800
C      1.463100    1.937900   -0.271300
C      2.122300    0.696400   -0.763800
C      3.221000   -0.001500   -0.507200
C      2.947700   -1.458200   -0.791500
O      1.541800   -1.535900   -1.052500
C      1.031200   -0.232100   -1.225000
O     -0.084700    0.100400   -0.412200
H      0.453300    0.965400    1.409600
H     -0.664200    1.904300    0.390200
H      1.154000    2.600700   -1.087700
H      2.053300    2.512300    0.444900
H      4.140200    0.351100   -0.056500
H      3.505400   -1.853400   -1.654600
H      3.197300   -2.087500    0.074100
H      0.706800   -0.128500   -2.272300
