15
gdb_14830
C     -0.023400    1.473400    0.143700
N      0.253600    0.055000   -0.044600
C      0.582700   -0.641700    0.936600
O      0.748100   -0.332000    2.273700
C      1.111400   -1.714200    2.596100
C      0.923600   -2.117000    1.125500
C     -0.219200   -3.056500    0.804000
O     -0.863500   -3.643500    1.633700
H      0.664500    2.056200   -0.478200
H     -1.036500    1.687300   -0.212600
H      0.065600    1.812500    1.181900
H      2.128900   -1.767900    2.987400
H      0.396000   -2.162800    3.286600
H      1.820400   -2.424700    0.579900
H     -0.436000   -3.151300   -0.280300
