16
gdb_16280
C     -0.064500    1.567800    0.068600
C      0.043600    0.054400   -0.017100
C      1.152500   -0.585700   -0.935400
C      1.723900   -1.302000    0.290200
N      2.107000   -0.253100    1.248500
C      0.682800   -0.686700    1.180200
C      0.019200   -1.232500    2.315800
N     -0.538900   -1.668700    3.232200
H      0.896100    2.005700    0.351100
H     -0.364700    1.986800   -0.897500
H     -0.812800    1.867100    0.809900
H     -0.926100   -0.396400   -0.243600
H      0.737600   -1.264000   -1.682600
H      1.843800    0.113000   -1.411600
H      2.152700   -2.294500    0.349200
H      2.524500   -0.705300    2.062000
