12
gdb_3761
C     -0.014900    1.443100   -0.061900
N      0.029100   -0.000100    0.003100
N      0.059600   -0.771800   -1.129900
C      0.093200   -1.992500   -0.634500
N      0.086900   -2.080000    0.729000
C      0.046300   -0.811200    1.075600
O      0.023200   -0.314400    2.318800
H      0.867000    1.824000   -0.583400
H     -0.911800    1.769300   -0.594700
H     -0.033400    1.833700    0.956000
H      0.123600   -2.861700   -1.274500
H      0.041600   -1.070900    2.918400
