17
gdb_83
C      0.058800    1.561700   -0.019500
C     -0.015400    0.031800    0.003100
C     -1.441000   -0.548600    0.050300
C     -1.407800   -2.072300   -0.130100
C     -2.184000   -0.176600    1.341100
H      1.094400    1.902300   -0.119000
H     -0.506900    1.972200   -0.863900
H     -0.344100    2.006300    0.895800
H      0.489300   -0.360100   -0.889500
H      0.552500   -0.351400    0.862700
H     -2.000300   -0.121500   -0.795600
H     -0.855000   -2.550700    0.687800
H     -2.417900   -2.495400   -0.137200
H     -0.919300   -2.353600   -1.069100
H     -3.191000   -0.607000    1.351400
H     -1.652000   -0.560100    2.220600
H     -2.287900    0.905800    1.460800
