15
gdb_4476
C     -0.000900    1.538800    0.128700
C     -0.011800    0.058300   -0.009300
C      0.004400   -0.773900   -1.091300
O      0.023400   -0.403700   -2.395700
N      0.020700   -2.101900   -0.736000
C     -0.001200   -2.094900    0.580500
N     -0.087500   -3.221000    1.397700
N     -0.009600   -0.833200    1.079900
H      0.889200    1.909400    0.655100
H     -0.003600    1.986700   -0.867800
H     -0.879800    1.922700    0.664300
H      0.042400   -1.222600   -2.904000
H     -0.014600   -4.056100    0.830100
H      0.615000   -3.244700    2.128000
H     -0.151200   -0.583100    2.043500
