13
gdb_16127
N      0.001500   -1.127200    0.154200
C      0.036300    0.024200    0.061600
C      0.038900    1.456300   -0.087500
C     -0.931800    2.143700   -1.038200
O     -0.423300    3.458500   -1.193000
C      0.981800    3.464600   -0.969600
C      1.246400    2.300400   -0.039400
O      0.345600    2.246000    1.066500
H     -0.960200    1.589300   -1.988900
H     -1.946200    2.217000   -0.636600
H      1.551100    3.321500   -1.901800
H      1.246700    4.434400   -0.538500
H      2.244100    1.903700    0.123000
