17
gdb_15665
C     -0.030300    1.542500   -0.189200
C      0.036900    0.031200    0.033200
N      0.693500   -0.645900   -1.108200
C      1.554000   -1.426800   -0.610200
O      1.714700   -1.493300    0.734900
C      0.831500   -0.463500    1.283300
C      1.723700    0.537100    2.010000
O      2.448600   -0.088800    3.049500
H      0.965500    1.980500   -0.296500
H     -0.583400    1.744800   -1.109500
H     -0.545700    2.042900    0.636600
H     -0.991400   -0.347100    0.087500
H      2.206000   -2.088000   -1.170900
H      0.191500   -0.962100    2.016100
H      2.395900    1.026400    1.288500
H      1.110100    1.314400    2.475900
H      2.921300   -0.826400    2.646800
