20
gdb_16428
C     -0.166600    1.595800   -0.014800
C     -0.035500    0.079700    0.005800
C      1.183700   -0.593300   -0.658300
C      2.130600   -0.293900    0.555000
C      2.582200   -1.763700    0.656500
C      1.091800   -1.844700    0.277500
C      0.712500   -0.608600    1.177000
C      0.348000   -0.628700    2.636900
H      0.778600    2.087400    0.239000
H     -0.470300    1.951900   -1.005600
H     -0.922500    1.938000    0.701200
H     -0.994800   -0.395500   -0.242800
H      1.479200   -0.604400   -1.709500
H      2.720900    0.610400    0.711400
H      3.299600   -2.108900   -0.095300
H      2.866300   -2.130800    1.648300
H      0.465300   -2.723100    0.108200
H      1.077100   -1.199600    3.222700
H      0.311000    0.385700    3.050000
H     -0.636000   -1.086300    2.791000
