14
gdb_4884
C     -0.126800    1.422500    0.168700
N     -0.094100    0.074100   -0.404400
C     -1.167700   -0.756000   -0.158700
C     -1.289300   -2.045700    0.200400
N     -2.668300   -2.332200    0.128900
C     -3.373600   -1.215400   -0.219300
O     -4.554000   -1.038000   -0.349800
O     -2.411400   -0.223500   -0.413700
H      0.732900    1.981800   -0.206600
H     -1.035700    1.926900   -0.162900
H     -0.106100    1.430300    1.268600
H      0.782100   -0.402900   -0.241600
H     -0.553300   -2.778900    0.475600
H     -3.118600   -3.202400    0.346100
