16
gdb_1966
C     -0.068700    1.525000    0.077600
C     -0.075900    0.001700   -0.018800
N      0.637100   -0.467500   -1.194000
C      0.013000   -0.238400   -2.520100
C      0.359800   -1.693100   -2.870000
O      0.360800   -2.351400   -3.864800
C      0.723400   -1.932200   -1.397600
H      0.957100    1.903200    0.105600
H     -0.573400    1.978800   -0.782000
H     -0.589600    1.856000    0.981000
H      0.418000   -0.426100    0.861700
H     -1.121800   -0.368300   -0.006600
H     -1.079900   -0.086300   -2.490800
H      0.464400    0.549700   -3.131100
H      1.697600   -2.383600   -1.181900
H     -0.061600   -2.512900   -0.883600
