19
gdb_9721
C     -0.142600    1.554400   -0.019300
C      0.042000    0.028300   -0.000400
C      0.874400   -0.513500   -1.193600
C      1.349500   -1.914500   -0.753500
C      1.347600   -1.895100    0.805000
C      0.869500   -0.484200    1.209000
C     -1.280100   -0.619000    0.004800
N     -2.318300   -1.128200    0.008900
H      0.837400    2.041400   -0.023400
H     -0.691400    1.875600   -0.909100
H     -0.694800    1.897200    0.860100
H      0.311900   -0.519700   -2.130200
H      1.727700    0.161500   -1.326000
H      0.662900   -2.680800   -1.122700
H      2.334500   -2.146700   -1.165800
H      0.661400   -2.653100    1.191600
H      2.332000   -2.115400    1.225200
H      1.721800    0.194500    1.329000
H      0.302900   -0.468300    2.143100
