22
gdb_16763
C     -0.016500    1.528700    0.120200
C     -0.001600    0.001200    0.000800
C      0.732300   -0.520900   -1.237100
C      2.250700   -0.199000   -1.290000
C      2.871900   -1.300400   -2.150700
C      3.177200   -2.616600   -1.481800
C      1.881300   -2.446800   -2.233200
C      0.645300   -2.059000   -1.421300
H      0.997000    1.935800    0.197500
H     -0.491000    1.988300   -0.754400
H     -0.571200    1.852300    1.006600
H      0.462700   -0.433600    0.897100
H     -1.035200   -0.369100   -0.014300
H      0.275900   -0.063300   -2.126300
H      2.439600    0.792600   -1.710800
H      2.678500   -0.196900   -0.278100
H      3.467100   -1.015400   -3.011100
H      3.942600   -3.245200   -1.925700
H      3.140000   -2.663000   -0.396300
H      1.747700   -3.002600   -3.154600
H      0.638200   -2.562500   -0.445400
H     -0.280800   -2.347100   -1.927900
