11
gdb_3636
C      0.035600   -1.225800   -0.004600
C     -0.004400   -0.022200    0.002800
C     -0.031100    1.389900    0.011200
C     -1.141600    2.222700    0.030300
N     -0.668400    3.486900    0.031400
N      0.678500    3.556700    0.014300
C      1.070300    2.291200    0.002000
H      0.068700   -2.286700   -0.011100
H     -2.195700    1.998400    0.042600
H     -1.199200    4.341300    0.043100
H      2.120900    2.044300   -0.013000
