17
gdb_3596
C      0.285300    1.524400   -0.131700
C      0.063500    0.047600    0.092900
N      1.248700   -0.831900    0.114000
C      0.447900   -0.675500    1.338600
C      1.142300   -0.018700    2.497600
C      2.365900   -0.640700    3.064000
N      2.451100    0.617400    2.303400
H      1.123500    1.899800    0.457800
H      0.488300    1.726400   -1.188900
H     -0.609700    2.089000    0.151700
H     -0.812700   -0.352400   -0.417000
H      1.057300   -1.719800   -0.339600
H     -0.199300   -1.505000    1.623800
H      0.480800    0.522700    3.171900
H      2.581700   -0.558000    4.125500
H      2.730600   -1.548900    2.590200
H      2.752800    0.387400    1.356000
