22
gdb_13408
C     -0.592200    1.481200    0.285900
C     -0.206200    0.012800    0.210600
O     -1.358000   -0.734900   -0.116200
C     -1.137300   -2.133200   -0.265500
C     -1.053700   -2.863100    1.106000
C     -2.447500   -3.512100    1.338200
C     -3.356600   -2.922500    0.242000
C     -2.391000   -2.712500   -0.933000
H      0.280700    2.094600    0.529200
H     -1.000900    1.819500   -0.670500
H     -1.352600    1.638500    1.056300
H      0.574100   -0.143800   -0.554400
H      0.221600   -0.316100    1.172000
H     -0.230900   -2.288400   -0.869400
H     -0.258300   -3.614400    1.106100
H     -0.807900   -2.141900    1.890000
H     -2.378800   -4.598800    1.216000
H     -2.831000   -3.331600    2.346000
H     -4.204800   -3.568200   -0.001600
H     -3.754400   -1.952600    0.558600
H     -2.767700   -2.046900   -1.713100
H     -2.142500   -3.676300   -1.394300
