18
gdb_12192
C      0.020700    1.569900    0.080400
C      0.035200    0.060500   -0.059700
C      0.777000   -0.582200   -1.276000
C      1.285400   -1.632400   -0.247700
N      0.961900   -0.678100    0.824100
C      0.460300   -1.196500    2.078400
C     -0.009300   -1.036200   -2.405500
N     -0.646400   -1.399300   -3.299600
H      1.035200    1.973100    0.010600
H     -0.597800    2.024000   -0.700800
H     -0.396700    1.864100    1.049100
H     -0.991100   -0.341900   -0.005700
H      1.588700    0.062900   -1.621200
H      0.648600   -2.531300   -0.247000
H      2.335400   -1.932000   -0.311100
H      1.245400   -1.770100    2.581600
H      0.179800   -0.368200    2.736900
H     -0.420800   -1.853500    1.954300
