16
gdb_18885
C     -0.014000    1.543800    0.100600
C      1.524100    1.443600   -0.022800
O      2.077600    1.032100    1.241600
C      1.791300   -0.358600    1.306900
C      2.270500   -0.885500   -0.051900
C      1.353700    0.079000   -0.786700
C     -0.008600    0.001100   -0.003900
O      0.385100   -0.560800    1.262500
H     -0.414300    1.981100    1.016700
H     -0.462900    2.009300   -0.782500
H      2.115200    2.269000   -0.421100
H      2.190200   -0.770400    2.231800
H      3.334100   -0.706200   -0.220500
H      2.025000   -1.938300   -0.204400
H      1.319300    0.101300   -1.872400
H     -0.873400   -0.543800   -0.384400
