20
gdb_8409
C     -0.122200    1.526800    0.138200
C     -0.095200    0.014200    0.122600
C     -1.314400   -0.651200   -0.477200
O      1.167100   -0.561200   -0.286000
C      0.764900   -0.722700    1.063900
C      1.552200   -0.206800    2.275000
C      1.001300   -1.422000    3.079600
C      0.529000   -2.075900    1.746500
H      0.801900    1.933000    0.554200
H     -0.236500    1.915400   -0.879800
H     -0.966200    1.895500    0.731900
H     -1.460600   -0.316600   -1.510200
H     -1.206300   -1.737600   -0.485100
H     -2.217100   -0.392400    0.087400
H      2.630700   -0.270400    2.101900
H      1.316100    0.793500    2.646300
H      1.726700   -1.985600    3.668400
H      0.165300   -1.147400    3.727000
H     -0.481600   -2.490500    1.717800
H      1.228400   -2.832200    1.377600
