20
gdb_391
C      0.093400    1.557100    0.039500
C     -0.024500    0.029900   -0.000800
C     -1.465700   -0.514600   -0.040500
C     -2.206100   -0.084500   -1.315300
C     -1.454700   -2.046300    0.129400
C     -2.833300   -2.691900    0.304000
H      1.138700    1.864800    0.144600
H     -0.293400    2.024900   -0.870800
H     -0.461200    1.973900    0.888000
H      0.526600   -0.357200   -0.869600
H      0.478000   -0.384900    0.882600
H     -2.003300   -0.090300    0.822100
H     -1.708200   -0.484700   -2.207400
H     -3.239500   -0.442200   -1.323300
H     -2.241500    1.003900   -1.415000
H     -0.946200   -2.496900   -0.734800
H     -0.837600   -2.293200    1.003000
H     -2.739600   -3.765400    0.496600
H     -3.372200   -2.249800    1.149900
H     -3.459500   -2.574300   -0.585500
