17
gdb_13170
C     -0.146200    1.501000   -0.000600
C      0.033700   -0.029100   -0.014600
C      0.703200   -0.461000   -1.247400
N      1.247100   -0.802800   -2.208400
C      0.813100   -0.535600    1.209400
C      0.041600   -0.524200    2.549400
O      0.072400   -1.960300    2.633400
C      0.850400   -2.065500    1.422700
H      0.823900    2.005100   -0.026500
H     -0.728800    1.836300   -0.861700
H     -0.670600    1.805300    0.909600
H     -0.957400   -0.502500   -0.007400
H      1.791700   -0.051800    1.244700
H      0.563900   -0.049300    3.388900
H     -0.984800   -0.135200    2.506800
H      0.344900   -2.665000    0.655400
H      1.843800   -2.490400    1.607000
