15
gdb_16928
N     -0.065000    1.285200   -0.086700
C     -0.034200    0.029100   -0.020800
O      1.098600   -0.760100    0.042700
C      0.625300   -2.131700    0.110100
C     -0.030300   -2.291600    1.485200
O     -1.222500   -1.492700    1.362200
C     -1.197200   -0.946100    0.027500
C     -0.612100   -2.097000   -0.803800
H      0.881200    1.672900   -0.079600
H      1.449300   -2.800900   -0.127200
H     -0.296000   -3.332000    1.708800
H      0.607600   -1.898300    2.283300
H     -2.170300   -0.528900   -0.213000
H     -0.367500   -1.828400   -1.832800
H     -1.220300   -3.002200   -0.768200
