13
gdb_20721
C     -0.019200    1.516800    0.013700
C      0.000400    0.019800   -0.032400
N     -0.054800   -0.569000   -1.192800
N     -0.033600   -1.913600   -1.177100
C      0.040300   -2.737900   -0.063100
O      0.054400   -3.951500   -0.136000
C      0.095700   -1.931400    1.165000
N      0.077200   -0.640400    1.181800
H      0.885000    1.892900    0.503000
H     -0.084000    1.928100   -0.993900
H     -0.871200    1.866600    0.605500
H     -0.077200   -2.357300   -2.086100
H      0.155700   -2.477300    2.105300
