16
gdb_13173
N      0.159000    1.482900    0.023600
C     -0.020000    0.033700   -0.012100
C      0.618800   -0.613300   -1.181100
N      1.114500   -1.092300   -2.109700
C      0.524100   -0.542400    1.302300
C      0.753100   -2.063000    1.419100
C      2.241700   -1.682300    1.561600
O      1.933500   -0.271000    1.435700
H      1.149500    1.679700    0.144100
H     -0.125800    1.900500   -0.856600
H     -1.093900   -0.188700   -0.060600
H     -0.048400   -0.079600    2.114900
H      0.299300   -2.528800    2.294100
H      0.505900   -2.641900    0.528200
H      2.699800   -1.906100    2.531100
H      2.901400   -2.024300    0.758100
