13
gdb_3112
C      0.021500   -1.210700    0.091800
C      0.057800   -0.010800    0.017400
C      0.061900    1.404400   -0.119100
C     -0.724700    2.271600   -1.124000
C      0.439200    3.321100   -1.065800
C      1.152900    2.410800   -0.059100
O      0.274000    2.224400    1.047600
H     -0.003000   -2.269500    0.169700
H     -0.820500    1.802400   -2.104800
H     -1.705500    2.593400   -0.768900
H      0.968400    3.410300   -2.017000
H      0.192000    4.315400   -0.687900
H      2.213500    2.277500    0.121500
