13
gdb_4531
O      0.082000    1.353100    0.213400
C      0.068100    0.011200   -0.010400
C      0.037500   -0.761800   -1.140500
C      0.051300   -2.130400   -0.684600
O     -0.035700   -3.291900   -1.426600
C      0.086300   -2.116200    0.679700
O      0.095700   -3.110500    1.605500
N      0.090800   -0.802000    1.095700
H      0.018900    1.798200   -0.636700
H     -0.000700   -0.418200   -2.162200
H      0.739600   -3.353400   -1.995000
H      0.031500   -3.936800    1.112100
H      0.103800   -0.488000    2.050000
