14
gdb_17144
C     -0.015300   -1.133300    0.027000
C     -0.016800    0.069100    0.032800
C     -0.040800    1.497300    0.040700
N     -0.690000    2.333600    1.113500
C     -0.155000    3.345400    0.148800
C      1.143300    2.515400   -0.104300
N      1.045800    2.516200   -1.598000
C     -0.379700    2.485100   -1.142600
H     -0.006600   -2.195300    0.022800
H     -1.708500    2.266300    1.032700
H     -0.259200    4.422100    0.286200
H      2.080300    2.519200    0.451200
H      1.277000    3.444300   -1.962000
H     -1.234700    2.450400   -1.820700
