17
gdb_4338
C      0.131300    1.530700    0.026700
C      0.076400    0.025000    0.010100
C      0.045900   -0.690300   -1.187200
C     -0.030600   -2.084400   -1.174500
C     -0.064200   -2.883700   -2.451800
N     -0.074700   -2.786700   -0.032900
C     -0.042500   -2.103300    1.111900
C      0.032900   -0.717100    1.190800
H      0.725300    1.898700    0.868400
H      0.561000    1.925700   -0.897900
H     -0.874300    1.956200    0.129400
H      0.083600   -0.162800   -2.135600
H     -0.027400   -2.241200   -3.334900
H      0.781100   -3.578300   -2.488400
H     -0.974900   -3.489500   -2.497100
H     -0.075700   -2.698000    2.022600
H      0.059500   -0.226100    2.158400
