9
gdb_743
C     -0.019000    1.490400    0.032400
C     -0.001200    0.006400   -0.033200
N     -0.108000   -0.703600   -1.120100
O     -0.040900   -1.989600   -0.701300
N      0.111800   -2.003400    0.681800
N      0.134500   -0.812400    1.078900
H      0.912900    1.863200    0.466800
H     -0.140400    1.907300   -0.967900
H     -0.840900    1.833100    0.667400
