14
gdb_5702
C      0.037500    1.339900   -0.153600
C      1.489500    1.879100    0.130900
C      2.150000    0.615900    0.607700
C      1.192000   -0.327200    0.699800
O     -0.071600   -0.031100    0.364600
O      1.612400   -1.503800    1.159500
C      2.972800   -1.306800    1.392100
C      3.341500   -0.033600    1.074500
H     -0.742700    1.926500    0.334100
H     -0.169400    1.290700   -1.226000
H      1.923300    2.306600   -0.779200
H      1.478800    2.674400    0.886300
H      3.496700   -2.169000    1.764900
H      4.339500    0.367300    1.163900
