15
gdb_7618
N     -0.130900    1.043800   -0.062000
H      1.160600    0.214700    1.305500
H      0.292400    1.842900   -0.520700
H     -0.737800    0.586500   -0.733500
C     -0.847000    1.445700    1.122800
C     -1.488800    0.376500    1.958500
C     -0.177300    0.972800    2.414500
O      0.993000    0.226700    2.267800
C     -0.162400    1.916000    3.576800
O      1.012800    1.958200    4.226400
O     -1.107400    2.593600    3.889700
H     -1.305300    2.431000    1.154700
H     -2.377100    0.649700    2.514800
H     -1.432900   -0.647700    1.605500
H      1.602200    1.329600    3.773900
