15
gdb_1331
C      0.118600    1.505100    0.025400
C      0.003200   -0.000700    0.081700
C     -1.233600   -0.595800   -0.557700
O      1.210600   -0.716900   -0.160900
C      0.680600   -0.792100    1.158400
C      1.446400   -0.150100    2.269600
O      2.317100    0.672100    2.135700
H      1.043000    1.844500    0.492400
H      0.116400    1.829500   -1.020900
H     -0.735400    1.977400    0.522100
H     -1.289500   -0.298300   -1.610400
H     -1.214100   -1.687000   -0.510700
H     -2.140100   -0.236000   -0.060400
H      0.233100   -1.751400    1.426500
H      1.126700   -0.496900    3.278800
