15
gdb_14285
C     -0.444300    1.393200   -0.131500
C     -0.048800   -0.058200    0.015100
C      1.334700   -0.589200   -0.299800
O      2.388500    0.347400   -0.347700
C      2.561000    0.900600    0.882600
N      3.418900    1.789300    1.106900
O      1.667800    0.368000    1.776900
C      0.852500   -0.578300    1.116200
H      0.369100    2.072900    0.128400
H     -0.736000    1.606100   -1.164400
H     -1.294500    1.625600    0.517100
H     -0.826200   -0.774300   -0.244400
H      1.518000   -1.460600   -0.914700
H      3.385800    2.071800    2.083100
H      0.621400   -1.440100    1.728800
