11
gdb_3432
O      0.019400    0.012900    0.206200
C      0.025100    1.189000   -0.002800
O     -1.114500    1.918100   -0.186700
C     -0.834500    3.254900   -0.636900
C      0.664900    3.426000   -0.512400
O      1.112900    3.201200    0.820400
C      1.206600    2.120500   -0.125500
H     -1.167700    3.355200   -1.675700
H     -1.390900    3.954300   -0.006800
H      1.207100    4.160700   -1.098800
H      2.194900    1.737000   -0.348200
