9
gdb_1014
N      0.097800   -1.136000   -0.005000
C      0.025700    0.019800    0.002500
C     -0.095000    1.423600    0.012000
C     -1.159100    2.275600    0.031200
N     -0.696900    3.575900    0.032300
C      0.593300    3.455000    0.014200
O      1.046700    2.186800    0.000900
H     -2.209600    2.034400    0.044000
H      1.338700    4.234800    0.008500
