16
gdb_15062
O     -0.004600    1.362100    0.113800
C      0.011200   -0.056100    0.148700
C     -1.443400   -0.530600   -0.040400
C     -1.485100   -1.977800   -0.221200
C     -1.493900   -3.168700   -0.382400
C     -2.306600   -0.035700    1.116700
C     -3.426600   -0.794600    1.678400
O     -2.169100   -0.720200    2.360300
H      0.847300    1.683000    0.422300
H      0.635100   -0.473000   -0.654200
H      0.384000   -0.439700    1.108200
H     -1.816800   -0.044800   -0.953300
H     -1.506400   -4.221300   -0.522400
H     -2.313100    1.049600    1.200400
H     -4.248200   -0.262400    2.155700
H     -3.668700   -1.771700    1.266800
