13
gdb_2593
N      0.270100    1.413700   -0.152200
C     -0.125000    0.037700    0.116100
C      0.714100   -0.518300    1.249900
C      1.148300   -1.929000    1.262800
O      2.053100   -0.892600    0.893300
C      0.598900    0.171600    2.525600
N      0.478300    0.693000    3.549400
H      1.198800    1.435700   -0.561200
H     -0.363000    1.844800   -0.816200
H     -1.177900    0.028600    0.420200
H     -0.019000   -0.655300   -0.734600
H      1.352300   -2.413500    2.214900
H      0.821600   -2.581800    0.455100
