17
gdb_3271
C     -0.051200    1.491900   -0.029700
C      1.230100    2.314400    0.166700
C      2.157600    1.780700    1.262900
O      2.710200    0.525200    0.872800
C      2.007400   -0.603500    1.315000
O      0.618100   -0.518600    1.153600
C      0.178800   -0.020600   -0.108400
H     -0.739600    1.670100    0.805600
H     -0.566100    1.823900   -0.939800
H      1.808700    2.330500   -0.765200
H      0.968500    3.355300    0.394100
H      3.006300    2.459700    1.397900
H      1.633900    1.696200    2.224900
H      2.436300   -1.438900    0.741000
H      2.150600   -0.779400    2.391900
H     -0.765000   -0.531300   -0.327100
H      0.895000   -0.276300   -0.901200
