16
gdb_278
C     -0.185000    1.335200   -0.045800
O     -0.064600   -0.067300   -0.023400
C      0.697200   -0.586500   -1.098400
C      0.623600   -2.111100   -1.005900
C      1.324300   -2.656900    0.241700
O     -0.734200   -2.525200   -1.065700
H      0.796100    1.827800    0.036100
H     -0.670400    1.687300   -0.969200
H     -0.798300    1.626200    0.810500
H      0.271900   -0.253400   -2.058300
H      1.740500   -0.234600   -1.044200
H      1.102800   -2.525000   -1.901500
H      0.903900   -2.204900    1.144700
H      1.189900   -3.740000    0.297200
H      2.397900   -2.439500    0.218900
H     -1.204900   -1.960400   -0.440300
