12
gdb_23661
N     -0.049100    1.353200   -0.099200
C      0.017000   -0.004200   -0.040400
N     -1.153600   -0.659500   -0.022000
C     -1.068100   -1.975500   -0.003300
F     -2.230700   -2.604100    0.012700
N     -0.004000   -2.753300    0.006100
C      1.158300   -2.079200   -0.008400
C      1.240500   -0.703200   -0.032500
H      0.764800    1.902200    0.115500
H     -0.950300    1.770400    0.067900
H      2.060100   -2.686200    0.000400
H      2.192900   -0.188200   -0.048100
