15
gdb_11204
N      0.062100    1.158400    0.177400
C      0.080300   -0.076900   -0.063300
C     -0.907300   -1.104200    0.447300
C     -0.698800   -2.296400   -0.496800
C      0.783700   -2.103600   -0.902700
O      1.013600   -0.702000   -0.857300
C      1.698900   -2.848700    0.060700
O      2.323200   -2.330800    0.945600
H      0.852900    1.626000   -0.268800
H     -0.644600   -1.361300    1.478800
H     -1.921300   -0.705300    0.449700
H     -0.889200   -3.267000   -0.032700
H     -1.333200   -2.214900   -1.383200
H      0.987700   -2.456000   -1.920100
H      1.714300   -3.951300   -0.107300
