18
gdb_17945
C     -0.039300    1.551700   -0.022600
C      0.016300    0.055700    0.005900
C      0.684000   -0.892600   -0.977800
C      1.651200   -1.841900   -0.267100
C      1.379000   -1.590900    1.244600
C      0.023500   -0.895600    1.231300
O     -0.936400   -1.794800    0.578200
C     -0.787700   -1.037500   -0.624200
H      0.880300    1.995700    0.377900
H     -0.157500    1.916600   -1.048100
H     -0.879900    1.936700    0.565800
H      0.906500   -0.525800   -1.974800
H      1.455900   -2.884400   -0.535000
H      2.688600   -1.623600   -0.536000
H      1.355900   -2.513200    1.831800
H      2.134300   -0.927600    1.683700
H     -0.358300   -0.531400    2.187700
H     -1.608400   -1.040600   -1.333200
