19
gdb_6402
C     -0.084100    1.560100    0.193500
N     -0.078200    0.108900    0.000200
H      0.464000   -0.124200   -0.828200
H      0.400400   -0.938900    1.328400
C     -1.410900   -0.527200   -0.104500
C     -2.146700   -0.211600   -1.412500
C     -1.252400   -2.046300    0.092800
C     -0.687500   -2.488200    1.449300
O      0.280300   -1.708800    1.947900
O     -1.070000   -3.479400    2.014200
H      0.947300    1.917800    0.251800
H     -0.596600    2.117600   -0.603200
H     -0.575000    1.793100    1.143200
H     -1.997100   -0.128800    0.734000
H     -3.143200   -0.663100   -1.415400
H     -2.270800    0.865400   -1.557600
H     -1.596800   -0.611200   -2.273000
H     -2.212900   -2.549800   -0.030800
H     -0.587800   -2.440200   -0.689900
