19
gdb_12079
C      0.014600    1.333800    0.143300
O     -0.104600   -0.055100   -0.078900
C      0.622000   -0.562800   -1.183600
C      0.133900   -0.003900   -2.517100
C      2.178900   -0.610400   -1.048900
N      2.193700   -2.112200   -1.157300
C      1.420100   -2.588900    0.003300
C      0.669900   -2.087600   -1.160700
H      1.066000    1.653900    0.200500
H     -0.486100    1.931600   -0.631100
H     -0.464200    1.542300    1.103200
H      0.348800    1.064800   -2.612700
H      0.627900   -0.517700   -3.346600
H     -0.947000   -0.149800   -2.612600
H      2.716500   -0.161900   -1.887100
H      2.593100   -0.237700   -0.106500
H      1.473000   -3.665500    0.132500
H      1.428400   -2.010900    0.923700
H      0.089600   -2.732300   -1.813500
