16
gdb_7425
C      0.088700    1.486800    0.137300
C     -0.044200   -0.046900    0.202300
O     -1.395000   -0.431700    0.243800
C      0.637100   -0.700100   -0.990300
O     -0.007200   -1.287900   -1.833100
C      2.175400   -0.626000   -1.103100
C      2.774700   -1.201200   -2.360500
O      2.816600   -0.144600   -0.198300
H      1.132200    1.796900    0.219700
H     -0.335800    1.869200   -0.796300
H     -0.477900    1.914600    0.967600
H      0.469200   -0.398700    1.108700
H     -1.572100   -0.889200   -0.591700
H      2.386400   -0.671100   -3.236700
H      3.860900   -1.121000   -2.319700
H      2.469600   -2.245700   -2.477500
