14
gdb_11100
O      0.124200    0.035100    0.585600
C      0.102200    1.224600    0.353400
N      1.147600    1.913500   -0.163500
C      2.516200    1.464500   -0.401800
C      2.879800    2.946500   -0.764100
C      1.417900    3.338500   -0.352400
C      3.952600    3.562800   -0.005800
N      4.802300    4.054400    0.604200
H     -0.780400    1.873600    0.526200
H      3.014100    1.076300    0.491500
H      2.623700    0.746000   -1.218100
H      3.062700    3.083700   -1.831000
H      0.833900    3.819700   -1.142300
H      1.358900    3.936100    0.562800
