16
gdb_5515
C     -0.068600    1.398100    0.041200
N     -0.012300   -0.052100   -0.004300
C      0.586700   -0.651800    0.933900
O      1.214800   -0.074700    2.022600
C      1.745100   -1.092100    2.797100
C      1.468600   -2.272500    2.233800
N      0.742400   -2.020800    1.073200
C      0.239300   -2.983700    0.121200
H      0.929800    1.859200    0.040400
H     -0.605700    1.761000   -0.839100
H     -0.593300    1.771500    0.932800
H      2.270400   -0.801800    3.688800
H      1.715100   -3.272700    2.546900
H     -0.405500   -3.720700    0.611900
H     -0.342300   -2.429600   -0.616700
H      1.055500   -3.509300   -0.388100
