15
gdb_18462
C      0.204200    0.891900   -0.376800
O     -0.449200   -0.029000    0.483300
C      0.401700   -0.633400    1.380400
C      0.150600   -2.016500    1.843500
O     -0.437300   -2.809200    0.787900
C      0.711700   -2.646600    0.014300
N      1.025100   -3.150900   -1.087600
C      1.391800   -1.743600    0.991600
H      0.973400    0.393800   -0.980800
H     -0.562000    1.305600   -1.034900
H      0.670500    1.710900    0.190400
H      0.820700    0.026700    2.145600
H      0.020100   -2.369600    2.857700
H      0.280400   -3.751800   -1.444500
H      2.446600   -1.718900    1.222900
