17
gdb_2796
C     -0.296900    1.530200   -0.159600
C      0.008800    0.045600   -0.013700
C      1.354600   -0.494100   -0.546300
O      1.639200   -1.157300    0.705600
C      0.487700   -0.538800    1.343800
C      0.969700    0.393900    2.445200
O      1.741900   -0.336000    3.379300
H      0.531200    2.157100    0.184100
H     -0.484600    1.779000   -1.209600
H     -1.190600    1.811000    0.407600
H     -0.829400   -0.539400   -0.402100
H      1.311500   -1.202700   -1.380800
H      2.097500    0.281800   -0.777600
H     -0.160900   -1.306100    1.784100
H      1.550000    1.224800    2.014400
H      0.121100    0.823600    2.989400
H      2.390800   -0.821100    2.853600
