16
gdb_2040
C     -0.056600    1.561300    0.064000
C      0.027900    0.045400    0.011500
O     -1.246300   -0.552400   -0.167400
C      1.122500   -0.599600   -0.934100
C      1.710800   -1.296000    0.296000
N      2.106700   -0.209400    1.227000
C      0.700600   -0.677400    1.191200
H      0.918700    1.986000    0.311600
H     -0.370500    1.966800   -0.906500
H     -0.786600    1.875100    0.817100
H     -1.642800   -0.166400   -0.955900
H      0.646800   -1.290400   -1.633000
H      1.799600    0.078000   -1.460900
H      2.183200   -2.268800    0.349700
H      2.542000   -0.648600    2.037700
H      0.200900   -1.059500    2.072900
