12
gdb_21612
N      0.011200    1.305700    0.008100
C     -0.059200   -0.037100    0.001000
N     -1.212000   -0.644000    0.003900
C     -1.180700   -2.021600   -0.004000
N     -2.151100   -2.844800   -0.003200
N      0.120000   -2.575700   -0.014300
N      1.254500   -1.903900   -0.016800
N      1.220000   -0.632300   -0.009400
H      0.911700    1.750500    0.005600
H     -0.834000    1.848600    0.015800
H     -3.027400   -2.325000    0.004500
H      0.212600   -3.582000   -0.020400
