15
gdb_8170
O      0.044400    1.413000    0.008200
C     -0.015800    0.044100    0.038000
C      0.348700   -0.847300    1.284500
C     -0.357300   -1.901200    0.405000
C     -1.341600   -0.801900   -0.048300
O      0.551400   -2.007500   -0.751100
C      0.789200   -0.688800   -1.007700
N      1.500400   -0.142200   -1.891000
H      0.632500    1.641200   -0.729100
H      1.402600   -1.008100    1.520000
H     -0.223800   -0.571600    2.171300
H     -0.640500   -2.896900    0.730200
H     -2.061200   -0.522300    0.722500
H     -1.821100   -0.921500   -1.021800
H      1.963900   -0.814400   -2.501500
