17
gdb_5516
C     -0.125500    1.545300    0.077100
C     -0.019900    0.050100    0.017500
C      0.064700   -0.734900   -1.116500
C      0.107100   -0.399100   -2.568400
O     -0.542300   -1.451600   -3.285200
N      0.185700   -2.044100   -0.717800
C      0.152900   -2.120200    0.648600
C      0.039800   -0.838700    1.133400
H      0.842800    2.024200    0.271500
H     -0.508000    1.963100   -0.859900
H     -0.803400    1.860700    0.877400
H     -0.385600    0.570000   -2.736200
H      1.147300   -0.295400   -2.922300
H     -0.353300   -1.333000   -4.220800
H      0.145800   -2.812700   -1.364900
H      0.197200   -3.070600    1.155900
H     -0.001000   -0.556300    2.175100
