18
gdb_7481
C     -0.007700    1.657100    0.084200
C     -0.024700    0.136200    0.007000
C      1.051500   -0.483300   -0.934000
C      1.929400   -0.751700    0.318800
C      0.664200   -0.564000    1.200800
O     -1.383200   -0.325900   -0.154600
C     -1.944600   -0.228800   -1.370200
O     -3.076700   -0.549000   -1.587700
H      1.003100    2.020300    0.292600
H     -0.339700    2.107400   -0.857100
H     -0.670600    2.000200    0.884000
H      0.692300   -1.415300   -1.377800
H      1.457200    0.155300   -1.722400
H      2.428600   -1.720200    0.370700
H      2.674800    0.030400    0.481700
H      0.755600    0.010200    2.125500
H      0.170100   -1.514000    1.415700
H     -1.256100    0.162400   -2.142800
