15
gdb_1657
C     -0.197300    1.531900    0.090200
C      0.049600    0.023900   -0.053600
O      0.831900   -0.231200   -1.189600
C      0.708500   -0.579800    1.181400
O      1.742200   -1.211900    1.070100
C      0.075500   -0.423800    2.552500
O      0.758900   -1.162300    3.521000
H      0.741000    2.058400    0.288000
H     -0.609300    1.909800   -0.848300
H     -0.908500    1.751500    0.892000
H     -0.930600   -0.478600   -0.149200
H      1.563600   -0.792000   -0.889500
H      0.064300    0.650900    2.801400
H     -0.979500   -0.734600    2.490700
H      1.533000   -1.531400    3.068800
