14
gdb_21298
C      0.012600    1.375000    0.025800
O      0.280600   -0.030300    0.081500
C      0.692200   -0.578400   -1.051700
N      0.859400    0.076700   -2.176600
O      1.296200   -0.940800   -3.049500
C      1.333800   -2.072600   -2.334200
C      1.766600   -3.317400   -3.019900
N      0.974000   -1.921100   -1.095400
H      0.914200    1.928200   -0.254000
H     -0.775100    1.588200   -0.703100
H     -0.310100    1.654400    1.028400
H      2.780200   -3.205100   -3.416200
H      1.744400   -4.144600   -2.311000
H      1.105000   -3.542100   -3.861800
