16
gdb_10773
C     -0.132200    1.438000   -0.007400
C     -0.032100   -0.079400    0.002700
C      1.124800   -0.656100   -0.920600
O      1.617600    0.073600   -1.997600
C      1.942100   -0.608300    0.362800
O      3.009900   -0.082300    0.562000
C      0.721900   -0.668100    1.270900
O      0.797800    0.049100    2.460500
H      0.838900    1.911400    0.173700
H     -0.493800    1.790700   -0.976500
H     -0.815500    1.781100    0.773400
H     -0.999700   -0.549800   -0.177800
H      0.871700   -1.670700   -1.244700
H      2.386800    0.563900   -1.678000
H      0.371900   -1.685600    1.472900
H      1.629200    0.541600    2.440500
