18
gdb_19428
C     -0.061900    1.491000    0.034000
C      1.280100    0.800100   -0.068900
C      0.010500   -0.009500   -0.014900
C     -0.343900   -0.859200    1.209300
O     -0.385200   -2.215400    0.764400
C     -0.640900   -2.214400   -0.617200
C     -1.819100   -1.435700   -1.142700
C     -0.415800   -0.844700   -1.191200
H     -0.322300    1.960400    0.978100
H     -0.438000    2.014400   -0.838600
H      1.813400    0.857500   -1.012700
H      1.923900    0.800000    0.804900
H      0.390200   -0.788100    2.018000
H     -1.323700   -0.565300    1.615100
H     -0.323300   -3.136700   -1.088600
H     -2.246400   -1.764100   -2.084200
H     -2.540000   -1.025500   -0.443400
H      0.066600   -0.685600   -2.148600
