16
gdb_14869
O      0.205200    1.309900   -0.354800
C      0.104500   -0.104000   -0.361100
C     -1.292400   -0.569700    0.032400
C     -2.392200   -0.460600   -1.049900
O     -2.534200   -1.895700   -1.127100
C     -1.595100   -2.094900   -0.056600
C     -0.466000   -3.026700   -0.449800
O      0.498800   -3.231800    0.241300
H     -0.331200    1.653300   -1.076500
H      0.384500   -0.523200   -1.341300
H      0.836900   -0.469800    0.363800
H     -1.560100   -0.121400    0.990600
H     -3.322700    0.022700   -0.730800
H     -2.080500   -0.032600   -2.013000
H     -2.074500   -2.502000    0.845400
H     -0.608400   -3.508900   -1.443300
