15
gdb_9588
C     -0.051500    1.554200   -0.121300
C      0.017200    0.036500   -0.017100
C      1.328100   -0.687100   -0.180900
C      0.680200   -0.671800    1.186800
C      1.292600    0.117400    2.287700
O      1.216800   -0.191300    3.449400
C     -1.157400   -0.637600   -0.519300
N     -2.104000   -1.162300   -0.927300
H      0.887200    2.016000    0.190500
H     -0.242100    1.846400   -1.157700
H     -0.857300    1.955700    0.499300
H      1.345500   -1.629000   -0.714800
H      2.203200   -0.061600   -0.326200
H      0.196300   -1.581300    1.523500
H      1.860000    1.020000    1.969000
