17
gdb_8557
C     -0.049300    1.470000    0.081800
C      0.055000   -0.023100    0.013600
C      0.883900   -0.902200   -0.905400
N      0.033800   -2.091400   -0.489700
C      0.439500   -2.253000    0.965400
C     -0.232400   -0.919800    1.238300
O     -0.559400   -0.318500    2.434700
C     -1.034100   -1.074500   -0.029900
H      0.903500    1.914800    0.391600
H     -0.317700    1.895500   -0.891300
H     -0.804700    1.773600    0.811900
H      0.715300   -0.688500   -1.965200
H      1.958500   -1.023200   -0.721800
H     -0.102000   -3.100100    1.399100
H      1.515500   -2.375900    1.134000
H     -1.208500   -0.869300    2.886300
H     -2.082400   -1.085800   -0.294000
