20
gdb_11396
C     -0.225200    1.496100    0.135700
C     -0.091800   -0.027500    0.080100
C      0.844300   -0.579000    1.162200
O      0.355400   -0.234000    2.463500
C      0.262700   -1.390600    3.302400
C     -1.131700   -1.476200    3.922900
C      0.625600   -2.537500    2.394800
C      0.955000   -2.080400    1.193400
H      0.743400    1.983400   -0.023500
H     -0.913700    1.861600   -0.632100
H     -0.600700    1.809600    1.113200
H     -1.073700   -0.500000    0.201700
H      0.294400   -0.338500   -0.899600
H      1.839200   -0.117300    1.024300
H      1.001000   -1.296300    4.118200
H     -1.890700   -1.605700    3.145900
H     -1.192900   -2.320100    4.618500
H     -1.352600   -0.559200    4.476400
H      0.613500   -3.570400    2.720100
H      1.265800   -2.663600    0.335400
