19
gdb_7789
C     -0.023700    1.568400    0.019800
C      0.016600    0.040400   -0.036400
C      0.782300   -0.487200   -1.254500
C      0.778600   -2.009500   -1.254300
O      1.271800   -2.581500   -0.033400
C      0.859500   -2.054500    1.160700
N      0.747300   -2.775300    2.195600
C      0.663900   -0.557000    1.222700
H      0.988900    1.985400    0.074500
H     -0.508700    1.984500   -0.869500
H     -0.575000    1.918500    0.898600
H     -1.016800   -0.331000   -0.101100
H      0.332800   -0.133100   -2.189600
H      1.815900   -0.117600   -1.230200
H     -0.241800   -2.382700   -1.425300
H      1.420000   -2.416900   -2.039800
H      0.954200   -3.749000    1.960200
H      1.659200   -0.105600    1.347400
H      0.095600   -0.331000    2.126800
