9
gdb_3824
N      0.010300   -1.146600   -0.003400
C     -0.020000    0.008900    0.003100
C     -0.001300    1.433700    0.010500
N     -1.130600    2.118600    0.028800
O     -0.748900    3.438600    0.030900
C      0.591500    3.523500    0.014200
C      1.142100    2.284900    0.000500
H      0.999400    4.521800    0.014300
H      2.180500    2.003600   -0.014400
