17
gdb_6317
C     -0.243700    1.703200    0.231400
C      0.000600    0.211400   -0.054700
C      0.768000   -0.505600    1.054600
C      2.255100   -0.158500    1.047000
N      2.930800   -0.530100    2.173400
O      2.803600    0.403000    0.116500
C     -1.301100   -0.486300   -0.385500
O     -1.671000   -1.536200    0.077400
H      0.712600    2.223100    0.317900
H     -0.811900    2.173800   -0.577800
H     -0.804300    1.842300    1.162500
H      0.610100    0.160600   -0.969900
H      0.335900   -0.277700    2.036400
H      0.660800   -1.589600    0.927700
H      2.502900   -1.095000    2.886300
H      3.932700   -0.429400    2.177800
H     -1.925800    0.057500   -1.132100
