14
gdb_4233
C     -0.019300    1.556200    0.031800
C     -0.037800    0.023600   -0.004300
C     -1.461400   -0.544500    0.035100
C      0.703100   -0.487000   -1.232000
F      1.973500   -0.049000   -1.262300
F      0.749800   -1.830100   -1.260000
F      0.118200   -0.086600   -2.374400
H      1.002500    1.942800    0.014300
H     -0.556800    1.971200   -0.826200
H     -0.506300    1.914800    0.942600
H      0.528800   -0.364100    0.851000
H     -2.042900   -0.194400   -0.823200
H     -1.454900   -1.636900    0.020500
H     -1.969900   -0.216300    0.945500
