14
gdb_20651
C     -0.028900    1.510100    0.043700
C     -0.011100    0.018400   -0.052300
C     -0.029200   -0.795900   -1.151600
C      0.002700   -2.122400   -0.637100
N      0.038100   -2.150100    0.677100
N      0.029900   -0.832500    1.043100
C      0.061000   -0.458200    2.392800
O      0.096400   -1.218800    3.316600
H      0.864400    1.904200    0.540400
H     -0.062900    1.932600   -0.962500
H     -0.903200    1.880000    0.590000
H     -0.061100   -0.483300   -2.183200
H      0.000600   -3.051700   -1.189500
H      0.049100    0.640500    2.497300
