19
gdb_19309
C      0.033200    1.294800   -0.259100
O     -0.068400    0.103200    0.503900
C     -1.282800   -0.556800    0.332700
C     -1.459100   -1.482300   -0.845700
C     -1.274300   -2.032300    0.556100
C      1.406500    1.875600   -0.068000
C      1.584100    3.349000   -0.089900
N      1.743000    2.599200    1.165600
H     -0.148600    1.080200   -1.324300
H     -0.732200    2.022600    0.064000
H     -2.153200    0.012000    0.664600
H     -2.434100   -1.555300   -1.314900
H     -0.617800   -1.577800   -1.523100
H     -0.313400   -2.476600    0.788500
H     -2.120700   -2.485400    1.059500
H      2.214200    1.245200   -0.433600
H      2.498400    3.780100   -0.487000
H      0.699400    3.967000   -0.225500
H      0.910400    2.697400    1.742500
