12
gdb_3792
C      0.066100    1.416100    0.028500
N     -0.118400   -0.018900   -0.123100
C      0.561700   -0.690700   -1.097600
N      0.712600   -2.016900   -1.120100
N      1.377300   -2.159600   -2.270200
N      1.631500   -1.041900   -2.913800
N      1.121500   -0.080300   -2.180900
H      1.078400    1.691800    0.356000
H     -0.123900    1.908500   -0.927000
H     -0.655700    1.785100    0.760300
H     -0.239800   -0.548300    0.726000
H      1.667300   -3.059700   -2.619900
