18
gdb_18710
C      0.114600    1.559600    0.039300
C      0.012100    0.029100    0.009900
C      0.602000   -0.546900   -1.298200
C      0.790200   -2.040700   -1.266000
C      1.071400   -2.693500   -0.137100
C      1.186200   -1.966300    1.150400
O      2.068600   -0.814700    1.186200
C      0.660700   -0.593200    1.231200
H      1.163700    1.873700    0.043600
H     -0.368700    2.003900   -0.836900
H     -0.364300    1.974500    0.932400
H     -1.050500   -0.251900    0.057700
H     -0.038900   -0.260700   -2.139300
H      1.574700   -0.070700   -1.480900
H      0.722300   -2.580900   -2.206400
H      1.219600   -3.768900   -0.128000
H      1.229800   -2.565900    2.057400
H      0.291500   -0.233200    2.193900
