18
gdb_6465
C      0.053000    1.618300    0.023100
C      0.037000    0.114000   -0.266000
C     -1.316600   -0.556900   -0.048800
C     -2.443400   -0.020400   -0.914800
C     -1.264500   -2.095800    0.100900
C     -1.653600   -1.815300    1.550300
O     -1.868400   -2.436800    2.541400
O     -1.699500   -0.457600    1.388600
H      1.071900    2.009200   -0.047800
H     -0.563700    2.179400   -0.685000
H     -0.318000    1.819000    1.032200
H      0.350000   -0.080000   -1.300100
H      0.768000   -0.386200    0.380100
H     -2.201400   -0.150600   -1.974700
H     -3.376000   -0.551500   -0.705500
H     -2.610800    1.043200   -0.728800
H     -2.010200   -2.661200   -0.460900
H     -0.283900   -2.560100   -0.020200
