15
gdb_2317
O     -0.150800    1.477600    0.203600
C     -0.034700    0.085700    0.114000
C     -0.670800   -0.784400    1.170500
C     -1.287400   -0.676600   -0.208700
C     -2.600300    0.069800   -0.399400
C     -3.766700   -0.743600   -0.069800
C     -4.716600   -1.429000    0.199700
H      0.393800    1.775000    0.939500
H      0.892600   -0.261900   -0.341300
H     -0.181600   -1.707400    1.461400
H     -1.187700   -0.270300    1.974700
H     -1.168400   -1.538500   -0.858100
H     -2.587800    0.978000    0.211800
H     -2.677100    0.411800   -1.439900
H     -5.561800   -2.025200    0.438700
