17
gdb_9879
C      0.048700    1.597500   -0.336400
C     -0.085500    0.102000   -0.144800
C     -1.436500   -0.418800    0.317300
C     -1.704700   -0.069400    1.798100
C     -2.971500   -0.616900    2.274900
N     -3.978700   -1.055700    2.633300
C      0.814000   -0.805600   -0.873500
O      1.026700   -0.527400    0.513300
H      1.067800    1.852600   -0.635300
H     -0.642000    1.952700   -1.108600
H     -0.173400    2.141500    0.587700
H     -2.232800   -0.005900   -0.311200
H     -1.466200   -1.506000    0.206200
H     -0.889600   -0.466600    2.412300
H     -1.721300    1.015200    1.949000
H      0.491900   -1.820300   -1.103600
H      1.561100   -0.393600   -1.550900
