12
gdb_21780
O     -0.213400   -0.108600   -0.038900
C     -0.108200    1.076100    0.075300
O     -1.105500    2.003000   -0.213000
N     -0.681300    3.364800    0.024000
C      0.523800    3.182500    0.433700
C      1.849300    3.731900    0.932700
C      2.290500    2.212700    0.987800
N      0.930400    1.893400    0.492100
H      2.395500    4.345900    0.216100
H      1.807700    4.236300    1.898400
H      3.082800    1.926800    0.294500
H      2.492800    1.816800    1.984000
