10
gdb_8977
O     -0.896200    1.504000    0.157100
C      0.161200    1.048800   -0.179300
C      1.428300    1.889000   -0.401100
O      2.449600    1.329000   -0.742600
C      1.311300    3.303700   -0.184100
C      1.223200    4.500300   -0.003100
C      1.120200    5.836700    0.200400
C      1.030700    7.027500    0.381100
H      0.345600   -0.029000   -0.369000
H      0.948200    8.074900    0.541000
