20
gdb_9337
C     -0.082400    1.526300   -0.112800
C      0.029300    0.012400    0.049400
C      0.783500   -0.412800    1.304800
O      1.235300    0.395300    2.083500
C      0.935200   -1.915200    1.521100
C      1.689800   -2.279300    2.797800
C      1.826600   -3.784300    2.982800
O      2.537200   -4.011700    4.189400
H      0.907400    1.986800   -0.165300
H     -0.631600    1.778500   -1.024300
H     -0.601000    1.972100    0.739600
H     -0.963600   -0.457600    0.078900
H      0.531100   -0.443600   -0.815400
H     -0.070700   -2.359600    1.514800
H      1.433100   -2.333300    0.634100
H      2.686400   -1.827400    2.783300
H      1.177500   -1.856100    3.667400
H      0.826800   -4.249800    3.014900
H      2.356900   -4.220800    2.119300
H      2.627100   -4.961000    4.312400
