17
gdb_10408
C      0.070200    1.518600   -0.148900
C     -0.049500    0.007700    0.061500
C     -1.499300   -0.507900    0.087100
C     -2.186800   -0.569700   -1.311800
O     -2.028400   -1.996600   -1.369700
C     -1.617200   -2.059800    0.005700
C     -2.278100    0.121400    1.145400
N     -2.893800    0.619500    1.988000
H      1.121000    1.819400   -0.175900
H     -0.387600    1.830800   -1.093700
H     -0.418700    2.070400    0.659400
H      0.468600   -0.530700   -0.740700
H      0.437500   -0.279600    1.000700
H     -3.240100   -0.266300   -1.313600
H     -1.653700   -0.057900   -2.120100
H     -0.677000   -2.606500    0.137600
H     -2.389800   -2.490300    0.653200
