15
gdb_12215
C     -0.193100    1.367400   -0.010700
N     -0.025900   -0.062200    0.038500
C     -0.983100   -1.163800    0.199800
C      0.213500   -2.140700    0.110800
C      0.273100   -3.043700   -1.092100
O     -0.557600   -3.071000   -1.965200
C      1.092700   -0.840200   -0.033500
O      2.262200   -0.597600   -0.157600
H      0.793800    1.813400   -0.152700
H     -0.840100    1.663100   -0.844900
H     -0.625700    1.752800    0.920500
H     -1.507700   -1.156700    1.160900
H     -1.694800   -1.262200   -0.624000
H      0.459000   -2.694700    1.020900
H      1.178900   -3.685100   -1.136200
