16
gdb_13444
O     -0.277600    1.307900   -0.260800
C     -0.132300   -0.070500   -0.102700
C     -0.341200   -0.632000    1.282600
O     -0.734900    0.305100    2.255600
C     -1.357300   -0.923600    0.201700
C     -2.745500   -0.309800    0.235400
C     -3.238500    0.000100   -1.164700
O     -4.275500   -0.399800   -1.628900
H     -0.474500    1.660300    0.618700
H      0.643000   -0.477500   -0.744500
H      0.273000   -1.448600    1.654800
H      0.052000    0.574600    2.741800
H     -1.323800   -1.938200   -0.186300
H     -3.463800   -0.972100    0.726600
H     -2.719300    0.631400    0.795300
H     -2.548500    0.645000   -1.751600
