19
gdb_1346
C      0.218800    1.415000    0.009600
C     -0.111500   -0.092700    0.004000
C     -1.636800   -0.283000    0.005100
C      0.567900   -0.821300   -1.198400
C      1.861300   -1.472000   -0.644700
C      1.611300   -1.503500    0.844700
C      0.554200   -0.772500    1.188500
H      1.299100    1.583100   -0.044500
H     -0.248600    1.920000   -0.843800
H     -0.147500    1.896500    0.923200
H     -2.085700    0.146400   -0.898000
H     -1.901600   -1.344600    0.042600
H     -2.097800    0.209600    0.868900
H     -0.101400   -1.605500   -1.567100
H      0.758700   -0.143500   -2.035500
H      2.041400   -2.466700   -1.068500
H      2.757300   -0.878700   -0.875700
H      2.254800   -2.038400    1.535300
H      0.200800   -0.617000    2.203600
