13
gdb_3424
O      0.015300    0.043200    0.172600
C      0.001400    1.237200    0.017900
C     -1.262900    2.096900   -0.161700
O     -0.848700    3.374700   -0.622700
C      0.550600    3.487100   -0.508000
C      1.138500    3.367100    0.853600
C      1.162000    2.165500   -0.107200
H     -1.929500    1.637300   -0.898700
H     -1.808400    2.168500    0.790000
H      0.978000    4.138700   -1.260500
H      2.102100    3.828000    1.038800
H      0.475000    3.337100    1.711200
H      2.108400    1.780700   -0.462100
