17
gdb_15791
C     -0.014900    1.624700   -0.186100
C     -0.000400    0.099700   -0.001300
N     -1.345500   -0.448100    0.064800
C     -1.995200   -0.687300    1.233000
O     -1.534800   -0.497600    2.339700
C      0.769400   -0.578900   -1.123500
C      0.582300   -1.983000   -1.495500
O      0.008900   -0.930200   -2.286800
H      1.005100    2.022400   -0.200500
H     -0.502300    1.898200   -1.127500
H     -0.555400    2.095900    0.638100
H      0.478500   -0.136900    0.954500
H     -1.810900   -0.613800   -0.815500
H     -3.013700   -1.089200    1.062100
H      1.731300   -0.116500   -1.347200
H      1.396300   -2.526400   -1.971300
H     -0.133800   -2.590500   -0.947000
