20
gdb_13146
C      0.076000    1.354000    0.607400
O     -0.013900   -0.029000    0.853600
C      1.086300   -0.751400    0.345000
C      0.856400   -2.223600    0.639000
O      1.936600   -3.028400    0.117500
C      2.212500   -3.592400    1.417900
C      1.082400   -2.769200    2.077000
C      1.465400   -1.805200    3.191600
H      0.115300    1.573700   -0.471200
H     -0.815900    1.821900    1.031300
H      0.968100    1.796100    1.078900
H      1.179200   -0.620600   -0.746600
H      2.031000   -0.403500    0.792700
H     -0.108900   -2.516400    0.205200
H      2.085400   -4.681900    1.425600
H      3.228700   -3.352700    1.758500
H      0.245300   -3.391800    2.402400
H      2.360500   -1.227600    2.938800
H      0.655300   -1.098400    3.391500
H      1.679500   -2.352900    4.115500
