11
gdb_880
O      0.162700    1.347200    0.293000
C      0.144100    0.011300    0.061000
C      0.163600   -0.791400   -1.038300
N      0.124600   -2.133400   -0.641600
C      0.084200   -2.098200    0.654200
O      0.036800   -3.142100    1.503200
N      0.092700   -0.829600    1.159400
H      0.197600    1.800600   -0.554900
H      0.202000   -0.509500   -2.078300
H      0.039800   -3.933500    0.950200
H      0.067100   -0.553400    2.126000
