22
gdb_15620
C     -0.266000    1.634300   -0.204300
C      0.067600    0.147800    0.021400
C      0.762200   -0.493800   -1.146200
C      2.031800   -0.918500   -1.224400
C      3.097100   -0.875400   -0.172800
C      2.323900   -1.559400   -2.567300
C      1.112600   -1.155500   -3.438300
C      0.002600   -0.790400   -2.426800
H      0.646000    2.217700   -0.365700
H     -0.908400    1.773400   -1.079500
H     -0.788900    2.052800    0.661600
H      0.675200    0.052500    0.927300
H     -0.867300   -0.394600    0.222700
H      3.461400   -1.885400    0.058700
H      3.969900   -0.307000   -0.520100
H      2.754200   -0.421800    0.760300
H      3.279000   -1.228000   -2.993900
H      2.406400   -2.651500   -2.457200
H      1.369800   -0.271100   -4.030100
H      0.810700   -1.936400   -4.141200
H     -0.695700   -1.626000   -2.265000
H     -0.611600    0.051100   -2.768300
