15
gdb_6696
C     -0.028100    1.563900    0.069000
C      0.020600    0.037400    0.027700
O      0.755500   -0.502700    1.109200
C     -1.409700   -0.561500   -0.038500
C     -1.420000   -2.010200   -0.128100
C     -1.424000   -3.215200   -0.213000
C     -1.431500   -4.576800   -0.307000
N     -1.441600   -5.735800   -0.388000
H      0.986500    1.965200    0.127300
H     -0.514300    1.975000   -0.821300
H     -0.586300    1.912700    0.947000
H      0.563800   -0.287400   -0.866300
H      0.381200   -0.164300    1.930700
H     -1.970300   -0.247600    0.853400
H     -1.941900   -0.140700   -0.901300
