20
gdb_9678
C      0.167000    1.303100   -0.111700
C     -0.033900   -0.169900    0.263700
C     -1.466500   -0.634700    0.098400
O     -2.392700   -0.047700    0.978700
C     -1.974800   -1.015800   -1.284500
C     -1.780300   -2.070300   -0.231200
O     -0.761500   -2.992400   -0.449600
C     -0.381500   -3.679100    0.728500
H      1.208400    1.607300    0.028800
H     -0.098500    1.486500   -1.158500
H     -0.449500    1.958700    0.513500
H      0.613200   -0.807800   -0.346100
H      0.259400   -0.321300    1.310000
H     -2.572700    0.846300    0.668100
H     -2.992200   -0.752000   -1.551100
H     -1.260600   -1.009000   -2.101200
H     -2.675400   -2.475300    0.243400
H      0.403800   -4.385400    0.449100
H      0.005200   -2.993800    1.495100
H     -1.227100   -4.237300    1.157400
