13
gdb_18788
O     -0.002500    0.033600    0.255600
C     -0.052200    1.201000    0.028900
C     -1.143500    2.290000   -0.068800
O     -1.191200    2.875100    1.271000
C     -0.008200    3.679000    1.031900
C      1.284800    2.849400    1.207300
N      1.021300    2.173900   -0.128700
C      0.000100    3.253300   -0.451700
H     -2.132100    2.146600   -0.505000
H     -0.102500    4.677300    1.461100
H      2.193700    3.455300    1.144700
H      1.342800    2.167200    2.058600
H      0.115000    3.850400   -1.351200
