17
gdb_17971
C     -0.044600    1.511400    0.003400
C      1.325300    2.198300   -0.031100
O      2.000800    2.059900   -1.283800
C      2.980900    1.080300   -1.329700
O      2.485300   -0.212300   -0.996600
C      1.400200   -0.614300   -1.743600
N      0.211800   -0.590000   -1.338000
C     -0.047800   -0.028400   -0.007900
H     -0.545300    1.846100    0.921300
H     -0.643700    1.878600   -0.837300
H      1.183200    3.274900    0.114100
H      1.963400    1.830200    0.784400
H      3.377100    1.100300   -2.353100
H      3.785500    1.251600   -0.602100
H      1.648800   -0.991800   -2.738000
H      0.674700   -0.401600    0.729500
H     -1.040100   -0.374700    0.295000
