17
gdb_16521
C     -0.033900    1.465700    0.024500
C     -0.023400   -0.036300   -0.069400
C      0.938400   -0.720300   -1.039500
O      0.342800   -1.980600   -1.363700
C     -0.609700   -2.230300   -0.343000
C      0.045800   -2.183100    1.056800
N     -0.324700   -0.734300    1.224700
C     -1.237600   -0.866200    0.024400
H      0.945000    1.842500    0.340900
H     -0.275500    1.918500   -0.943000
H     -0.770200    1.794200    0.761500
H      1.053500   -0.137300   -1.960300
H      1.936500   -0.861400   -0.600500
H     -1.222400   -3.083900   -0.629300
H     -0.496200   -2.762100    1.808700
H      1.114300   -2.415800    1.114400
H     -2.268800   -0.534400    0.010600
