18
gdb_19534
O      0.186500    1.039100    0.705100
C      0.034100    0.018600   -0.267200
C     -1.359200   -0.586300   -0.250200
C     -1.638000   -2.086600   -0.151900
C     -0.513000   -3.038100    0.254500
C     -0.307500   -2.729800    1.756400
O     -0.887400   -1.439700    2.003800
C     -1.876200   -1.191600    1.027200
H      0.035000    0.607000    1.555000
H      0.221800    0.487700   -1.238200
H      0.800900   -0.758400   -0.140100
H     -2.100500   -0.032600   -0.820600
H     -2.464700   -2.484200   -0.728300
H     -0.818100   -4.077000    0.104300
H      0.403800   -2.884100   -0.321700
H     -0.809600   -3.480700    2.382700
H      0.744200   -2.682400    2.052900
H     -2.854900   -0.953900    1.431400
