17
gdb_1613
C     -0.091100    1.597600    0.170100
C     -0.000100    0.066800   -0.039700
C     -1.354800   -0.518200   -0.002400
N     -2.425500   -0.950500    0.034800
N      0.697400   -0.398300   -1.237400
C      0.127600    0.053000   -2.498200
C      2.137600   -0.219000   -1.171000
H      0.910800    2.034400    0.180600
H     -0.673600    2.073600   -0.622100
H     -0.572900    1.819700    1.125900
H      0.540000   -0.358400    0.815900
H      0.288400    1.125800   -2.704800
H      0.583600   -0.514000   -3.315700
H     -0.947900   -0.144200   -2.511400
H      2.525000   -0.647200   -0.240800
H      2.601600   -0.753400   -2.005800
H      2.467300    0.834500   -1.228400
