18
gdb_18612
C     -0.222900    1.588800    0.016600
C      0.040400    0.073000   -0.015300
C      0.911900   -0.405300   -1.164600
C      1.881600   -1.233600   -0.761600
C      1.910800   -1.379300    0.723100
C      2.204300   -0.089000    1.463800
O      2.838200    1.001400    0.867600
C      0.767300   -0.476600    1.219200
H      0.707800    2.145700    0.143500
H     -0.710900    1.921300   -0.906000
H     -0.882900    1.844300    0.851600
H     -0.935800   -0.428400   -0.100500
H      0.730200   -0.101600   -2.190500
H      2.600300   -1.721200   -1.411300
H      2.166600   -2.331900    1.174200
H      2.551900   -0.199500    2.486400
H      2.783100    0.877400   -0.089300
H      0.170500   -0.757600    2.080100
