18
gdb_14931
O     -0.103500   -0.029900   -0.001200
C     -0.028700    1.178700    0.014500
C      1.233100    1.938500    0.010000
C      1.174100    3.279400    0.018900
C      2.380100    4.171900    0.029600
C      3.674000    3.402500    0.339700
C      3.713600    2.067300   -0.415000
C      2.533400    1.173200   -0.011700
H     -0.946000    1.811300    0.034000
H      0.196600    3.760800    0.011000
H      2.455100    4.668500   -0.950200
H      2.228500    4.985800    0.750100
H      4.544000    4.018100    0.089300
H      3.726400    3.207200    1.418400
H      3.670300    2.261500   -1.494800
H      4.659100    1.548300   -0.227500
H      2.707100    0.735700    0.981200
H      2.430500    0.317300   -0.686700
