18
gdb_11796
O     -0.085400    1.422400   -0.148700
C     -0.001300    0.009800   -0.006600
C     -1.400300   -0.543400   -0.016800
C     -2.336800   -0.515900   -1.271600
C     -3.091100   -1.566700   -0.422200
C     -1.705000   -2.076300    0.046000
O     -3.565000   -0.810200    0.702500
C     -2.390300   -0.040100    1.048000
H      0.806800    1.780600   -0.138600
H      0.581200   -0.440100   -0.826400
H      0.495800   -0.267100    0.938700
H     -2.862000    0.412300   -1.504700
H     -1.857500   -0.932200   -2.160000
H     -3.886000   -2.209300   -0.796500
H     -1.168600   -2.645200   -0.716300
H     -1.657400   -2.576300    1.016900
H     -2.074400   -0.271500    2.073100
H     -2.596600    1.031100    0.967800
