12
gdb_3283
O     -0.008100    0.029100    0.072300
C      0.005800    1.223800   -0.008800
N     -1.003800    2.177500   -0.046800
C     -0.122700    3.341200   -0.015500
C      0.418700    3.732800    1.376400
O      1.464400    2.735300    1.300000
C      1.077200    2.355000   -0.037300
H     -1.970900    2.091300    0.236500
H     -0.327200    4.114900   -0.753600
H      0.846000    4.741600    1.420800
H     -0.256900    3.576400    2.224300
H      1.902200    2.325600   -0.749000
