20
gdb_15708
C      0.165000    1.609400   -0.231200
C     -0.033700    0.107300    0.007500
C      0.674800   -0.755500   -1.064000
C      2.075300   -1.023600   -0.459500
O      2.025900   -0.587100    0.898700
C      0.656500   -0.424200    1.277500
C      0.647100    0.427700    2.537400
O      1.342800   -0.217300    3.588800
H      1.226400    1.877000   -0.216300
H     -0.239300    1.895300   -1.207500
H     -0.344200    2.213100    0.526000
H     -1.105100   -0.115800    0.036000
H      0.137600   -1.696600   -1.212100
H      0.729600   -0.253100   -2.033200
H      2.335400   -2.089800   -0.505700
H      2.869900   -0.461900   -0.962100
H      0.228200   -1.408500    1.535800
H      1.081200    1.414500    2.320700
H     -0.382500    0.576600    2.880800
H      2.198700   -0.468100    3.222000
