19
gdb_5821
C     -0.007300    1.586200   -0.095400
C      0.027700    0.047200   -0.004200
C      0.639100   -0.489500   -1.225400
N      1.104900   -0.895000   -2.202300
C      0.758500   -0.503200    1.273100
C      0.021200   -0.055500    2.543200
C      0.843100   -2.030600    1.221800
O      2.107200   -0.046600    1.293500
H      1.006400    1.996300   -0.098500
H     -0.492400    1.901600   -1.021800
H     -0.564500    2.015900    0.739900
H     -1.004300   -0.325100    0.024200
H     -1.017700   -0.400000    2.548300
H      0.525300   -0.473500    3.418500
H      0.013100    1.034100    2.649900
H      1.426800   -2.353700    0.357400
H      1.333600   -2.400500    2.125600
H     -0.153900   -2.476800    1.158000
H      2.115500    0.878200    1.560000
