17
gdb_18302
O      0.106700    1.320500    0.235500
C      0.080900   -0.052900    0.033700
C     -1.307500   -0.700100   -0.016800
N     -2.382700    0.267700    0.038600
C     -2.977900    0.530200   -1.275200
C     -1.882500    1.055400   -2.197200
O     -0.828400    0.116000   -2.375200
C     -0.449200   -0.634700   -1.262200
H     -0.814200    1.552500    0.455700
H      0.892200   -0.582400    0.527900
H     -1.491000   -1.663300    0.452300
H     -3.076500    0.005400    0.724700
H     -3.434500   -0.367400   -1.723600
H     -3.755200    1.293700   -1.168900
H     -2.284800    1.244100   -3.197000
H     -1.486100    1.997100   -1.796200
H      0.004300   -1.565700   -1.589800
