10
gdb_4633
O      0.051300    0.013300    0.002500
C      0.000700    1.197500    0.009600
O     -1.151400    1.952900    0.029700
C     -0.778600    3.270600    0.031600
C      0.557800    3.355300    0.013300
O      1.062700    2.055300   -0.000700
C      1.443800    4.440100    0.006800
C      2.207400    5.370200    0.001100
H     -1.555000    4.014300    0.046400
H      2.881000    6.191900   -0.003900
