18
gdb_14839
C     -0.096200    1.582200    0.050100
C     -0.041600    0.051700    0.000200
C      0.750900   -0.539000    1.158400
C      0.092100   -0.530700    2.555100
O      0.150000   -1.969400    2.653400
C      0.763400   -2.092100    1.346300
C     -0.007900   -2.904900    0.418900
C     -0.632200   -3.582400   -0.353700
H      0.908400    2.017300    0.004200
H     -0.672100    1.983400   -0.789100
H     -0.567700    1.936800    0.973400
H     -1.056900   -0.361100    0.008500
H      0.409400   -0.272900   -0.945400
H      1.765600   -0.131100    1.164000
H      0.658500   -0.044700    3.358100
H     -0.942900   -0.164600    2.577100
H      1.774600   -2.511100    1.435800
H     -1.186000   -4.184900   -1.030800
