18
gdb_8781
C      0.090500    1.417300    0.057200
N     -0.007900   -0.030300    0.046200
C     -1.138800   -0.612800    0.045600
C     -2.494900    0.061000    0.055300
N     -1.114500   -2.022400    0.034400
C      0.190100   -2.685800    0.024600
C     -2.246400   -2.810900    0.032700
O     -2.244200   -4.022100    0.023500
H      1.147700    1.695100    0.055300
H     -0.372100    1.882200   -0.824600
H     -0.365100    1.868100    0.949800
H     -3.083900   -0.204000   -0.828100
H     -3.078200   -0.217800    0.938200
H     -2.370900    1.142600    0.063400
H      0.763800   -2.397800    0.907700
H      0.005800   -3.758100    0.016100
H      0.758000   -2.382700   -0.857200
H     -3.180400   -2.231300    0.040500
