18
gdb_18104
C     -0.072000    1.496900    0.008000
C      1.423800    1.935300    0.029500
C      2.138800    0.768900   -0.674100
C      3.553500    0.264500   -0.305300
C      3.367400   -1.245200   -0.311700
C      2.070900   -1.605400   -0.325300
C      1.242300   -0.411200   -0.337600
C      0.013400   -0.020300    0.013600
H     -0.638400    1.893900    0.858000
H     -0.577500    1.868500   -0.896900
H      1.590300    2.908900   -0.440300
H      1.763500    2.002300    1.070100
H      2.109800    0.924500   -1.763500
H      4.333400    0.601200   -0.996200
H      3.857900    0.600500    0.697800
H      4.201900   -1.935100   -0.245200
H      1.700100   -2.621600   -0.264900
H     -0.812900   -0.661200    0.297800
