20
gdb_15576
C     -0.363900    1.509900   -0.018100
C     -0.015600    0.025400    0.029200
C      0.872700   -0.467700   -1.134500
C      1.597200   -1.741900   -0.616200
C      1.193400   -1.881000    0.872200
C      0.750400   -0.457500    1.296400
C      1.894700    0.388500    1.625100
C      2.848000    1.073600    1.888300
H      0.540500    2.123500    0.036800
H     -0.886100    1.756000   -0.948800
H     -1.015700    1.796600    0.814200
H     -0.949000   -0.553700    0.017000
H      0.281900   -0.654300   -2.035900
H      1.603000    0.307500   -1.389200
H      1.323700   -2.635200   -1.184200
H      2.680500   -1.628700   -0.709100
H      0.332900   -2.551200    0.974600
H      1.994700   -2.275900    1.500400
H      0.081400   -0.492000    2.164300
H      3.685000    1.679900    2.131700
