15
gdb_3005
O      0.009400    1.401400    0.002500
C     -0.037400    0.001000   -0.017300
C     -1.483400   -0.477200    0.050800
O     -2.419400    0.286000    0.111500
C     -1.652600   -1.959900    0.036900
C     -2.814800   -2.533600    0.834400
C     -2.892200   -2.510700   -0.653000
H      0.931300    1.669700   -0.047600
H      0.407300   -0.430900   -0.932100
H      0.499500   -0.458900    0.832200
H     -0.745000   -2.551900   -0.019400
H     -2.649900   -3.478700    1.338700
H     -3.410400   -1.807800    1.376000
H     -3.539500   -1.769400   -1.107300
H     -2.782100   -3.439500   -1.200700
