16
gdb_9868
C     -0.041100    1.517800    0.004300
C      0.003500   -0.003100   -0.003400
C      1.349700   -0.693300   -0.226000
C      0.731700   -0.718300    1.135200
C     -1.149600   -0.659500   -0.538900
C     -2.127300   -1.211300   -0.992700
C     -3.297500   -1.839300   -1.535600
O     -3.459500   -3.036300   -1.632300
H      0.880700    1.925000    0.430200
H     -0.150100    1.911800   -1.010700
H     -0.882100    1.882200    0.602100
H      1.352300   -1.607400   -0.806800
H      2.196800   -0.038900   -0.400600
H      1.149000   -0.081300    1.907400
H      0.309100   -1.649700    1.491300
H     -4.075700   -1.124200   -1.874600
