19
gdb_4131
C      0.129100    1.508800   -0.489800
C     -0.015500    0.082400   -0.004500
C      1.148800   -0.876600   -0.056600
C      0.562400   -0.454400    1.282800
C      1.382500    0.298300    2.271700
C      2.324300   -0.488800    3.148800
N      1.239600    1.566700    2.354100
O      2.090200    2.115500    3.332400
H      1.124600    1.906500   -0.287800
H     -0.046300    1.552700   -1.571100
H     -0.591000    2.171000   -0.000200
H     -0.977700   -0.360000   -0.253400
H      0.996800   -1.896600   -0.392700
H      2.113400   -0.455300   -0.322600
H     -0.033900   -1.228800    1.763700
H      3.361600   -0.195800    2.954300
H      2.134700   -0.272700    4.204500
H      2.223600   -1.560900    2.971200
H      1.864300    3.050300    3.290500
