13
gdb_13478
N      0.001800    1.263900    0.214500
C      0.091300   -0.086300    0.030800
O      1.117700   -0.702800   -0.127300
C     -1.295500   -0.751700   -0.014200
O     -1.295600   -2.162200    0.245800
C     -2.135800   -2.050900    1.415700
C     -2.178300   -0.533800    1.219400
O     -2.626100    0.420600    1.781100
H      0.865400    1.769200    0.340100
H     -0.838700    1.664300    0.605300
H     -1.780900   -0.496000   -0.966500
H     -3.098200   -2.565300    1.304700
H     -1.639200   -2.390300    2.333100
