20
gdb_16570
C     -0.033200    1.577700   -0.064200
C      1.469200    1.972100   -0.076800
C      2.190600    0.605500    0.017200
C      2.468000    0.161700    1.461800
C      1.165000    0.147100    2.284200
C      0.010200   -0.483600    1.482400
C      0.011300    0.033300    0.035400
O      1.261300   -0.310600   -0.571900
H     -0.585200    2.030400    0.763900
H     -0.524300    1.882100   -0.991300
H      1.732800    2.474600   -1.010400
H      1.740600    2.641100    0.744300
H      3.104400    0.567700   -0.581900
H      2.898800   -0.845600    1.422400
H      3.214000    0.815900    1.928600
H      1.313400   -0.387900    3.228000
H      0.897600    1.174700    2.559700
H      0.129200   -1.572700    1.445600
H     -0.953500   -0.278200    1.963400
H     -0.775400   -0.450900   -0.549500
