19
gdb_8200
C     -0.086000    1.511900   -0.010500
C      0.117500    0.019100    0.001300
C      0.445800   -0.687900   -1.318300
C      1.263700   -1.885600   -0.885700
C      1.456700   -1.910200    0.433000
C      0.771900   -0.756600    1.102200
C      1.328500   -0.190600    2.382400
N     -0.710700   -0.830800    0.894300
H      0.760300    2.023500   -0.482500
H     -0.987700    1.776300   -0.575900
H     -0.201000    1.915800    1.000100
H     -0.467000   -0.984100   -1.849400
H      1.010800   -0.032200   -1.995400
H      1.613000   -2.635100   -1.587000
H      2.002800   -2.667800    0.983800
H      2.391400    0.052600    2.276300
H      0.804100    0.720000    2.687600
H      1.235000   -0.915000    3.200100
H     -1.154200   -0.215900    1.578400
