14
gdb_20196
C     -0.024700    1.468600    0.043300
C      1.215800    1.984800    0.026700
C      2.245100    0.863600   -0.030700
N      2.495700    0.672100    1.428700
C      1.645700   -0.211200    1.799700
N      0.899400   -0.905200    0.826500
C      0.013200    0.013400   -0.159000
C      1.408700   -0.369800   -0.441600
H     -0.938100    2.016700    0.237800
H      1.486700    3.011300    0.238200
H      3.162100    1.057600   -0.585500
H      1.476500   -0.460000    2.843300
H     -0.843300   -0.551700   -0.501700
H      1.712300   -1.075800   -1.208000
