14
gdb_16139
O     -0.198100    0.040800    0.250200
C     -0.030700    1.211500    0.015600
C      1.305400    1.850100   -0.078300
O      1.311500    3.277200    0.208700
C      1.635100    2.877500   -1.109200
C      3.127400    2.759200   -1.402500
C      3.589600    1.681400   -0.442600
C      2.582000    1.158300    0.259100
H     -0.874200    1.917300   -0.145200
H      0.934800    3.190000   -1.880200
H      3.300200    2.478300   -2.448800
H      3.639700    3.714900   -1.239000
H      4.633500    1.407500   -0.341600
H      2.638100    0.364200    0.990600
