14
gdb_4436
C      0.178600    1.508000    0.058600
C     -0.012900    0.041900    0.017600
C     -1.094400   -0.735500    0.039900
N     -2.444300   -0.430900    0.111200
O     -0.668100   -2.080600   -0.025000
C      0.697300   -2.059600   -0.085900
N      1.497700   -3.027200   -0.154900
O      1.115400   -0.759400   -0.060700
H      0.781200    1.801600    0.925200
H      0.698400    1.862000   -0.838500
H     -0.795500    1.995900    0.121000
H     -2.960500   -0.756600   -0.700500
H     -2.886600   -0.814000    0.941200
H      0.988200   -3.907000   -0.161800
