22
gdb_14122
C     -0.198100    1.567300   -0.125700
C     -0.013100    0.044300   -0.014400
C     -1.356200   -0.656100    0.228600
C      0.737100   -0.487800   -1.215700
C      0.107800   -0.889200   -2.523500
C      0.918000   -1.909500   -1.765400
C      2.411200   -1.663800   -1.996600
C      2.231900   -0.205000   -1.462700
H      0.760900    2.077700   -0.261400
H     -0.834100    1.818400   -0.982000
H     -0.669700    1.973600    0.775400
H      0.620600   -0.148200    0.864700
H     -2.073400   -0.436100   -0.569600
H     -1.238400   -1.742800    0.289000
H     -1.800500   -0.315000    1.169100
H     -0.965100   -1.049400   -2.505500
H      0.477300   -0.484700   -3.464600
H      0.474400   -2.838800   -1.425800
H      3.054600   -2.263300   -1.348500
H      2.760700   -1.773500   -3.029100
H      2.460000    0.608600   -2.159600
H      2.788000   -0.032600   -0.536800
