14
gdb_17510
N      0.027500   -1.157300   -0.003500
C      0.003600   -0.001400   -0.018300
C     -0.020900    1.438300   -0.014800
C     -1.111100    2.224100    0.753200
C     -0.912600    3.255700   -0.340000
C      0.530400    3.281300   -0.724300
C      1.280200    2.266500    0.116400
N     -0.383200    2.241800   -1.322200
H     -2.083000    1.735500    0.662300
H     -0.911100    2.483100    1.796900
H     -1.608700    4.021100   -0.660400
H      0.949400    4.066400   -1.341600
H      1.617100    2.527900    1.123600
H      2.093800    1.809500   -0.450000
