17
gdb_9603
C     -0.090000    1.599100    0.048700
C     -0.039200    0.085700    0.010300
C     -1.307600   -0.580500   -0.479700
O     -1.505400   -0.196500   -1.831800
C      1.259600   -0.593400   -0.306000
C      0.703900   -0.671500    1.111100
C      1.346800    0.041300    2.177800
N      1.860100    0.617000    3.040600
H      0.851900    2.026100    0.400600
H     -0.297200    1.982800   -0.953400
H     -0.884800    1.946300    0.718100
H     -1.214900   -1.674800   -0.387300
H     -2.152600   -0.265100    0.152300
H     -2.385300   -0.476400   -2.100500
H      1.245500   -1.511200   -0.882800
H      2.135300    0.026500   -0.458000
H      0.286200   -1.625500    1.417700
