22
gdb_12364
C     -0.052800    1.565700   -0.058000
C      0.053200    0.038000   -0.020900
C      0.674300   -0.527100   -1.308700
C      0.577600   -2.058300   -1.349900
C      0.929300   -2.679500   -0.024100
C      1.026600   -1.988700    1.111100
C      0.798900   -0.499500    1.228100
C      2.128000    0.218500    1.542200
H      0.922300    2.036600   -0.221100
H     -0.711300    1.886000   -0.872500
H     -0.462900    1.963300    0.877200
H     -0.969500   -0.361800    0.042400
H      0.179600   -0.093900   -2.185800
H      1.728000   -0.225400   -1.368200
H     -0.440400   -2.364100   -1.636000
H      1.231000   -2.461500   -2.134400
H      1.102900   -3.753600   -0.015000
H      1.303900   -2.503800    2.029400
H      0.142400   -0.331500    2.095100
H      2.822200    0.164400    0.697500
H      1.970800    1.272000    1.790900
H      2.621200   -0.253800    2.398200
