20
gdb_6967
C     -0.412800    1.472200    0.008400
C     -0.097200    0.010000   -0.022300
C      0.129700   -0.753400   -1.091400
C      0.406300   -2.193200   -0.734000
C     -0.020600   -2.262300    0.750100
C      0.007100   -0.805200    1.267900
C      1.290100   -0.479700    2.046100
O     -1.132100   -0.625500    2.118700
H      0.347300    2.044200    0.556700
H     -0.480200    1.889900   -0.999500
H     -1.369900    1.649100    0.514100
H      0.139600   -0.392500   -2.115500
H     -0.145300   -2.901400   -1.362900
H      1.470500   -2.436300   -0.864600
H     -1.055000   -2.608300    0.826600
H      0.599800   -2.931900    1.351800
H      2.179500   -0.696100    1.446200
H      1.331500    0.580200    2.325800
H      1.332300   -1.076600    2.962600
H     -1.009400    0.190300    2.615000
