17
gdb_16486
C     -0.067100    1.461100   -0.015900
C      0.084100   -0.025100    0.075000
C      0.837900   -0.843800   -0.923900
C      1.088700   -2.231100   -0.360400
C     -0.309700   -2.051300    0.251800
C     -0.176500   -0.904000    1.278000
O      0.829700   -0.935900    2.263700
N     -0.661600   -0.983400   -0.833000
H      0.748600    1.964500    0.514100
H     -0.050400    1.790000   -1.059300
H     -1.014500    1.788000    0.425500
H      1.300600   -0.378800   -1.787800
H      1.084700   -2.984000   -1.152400
H      1.929800   -2.388500    0.319900
H     -0.983700   -2.890400    0.415300
H     -1.158600   -0.659700    1.705600
H      0.489300   -1.396000    3.037300
