11
gdb_21823
O     -0.292200   -0.012000    0.002100
C     -0.099500    1.171600    0.008500
N      1.144000    1.794300    0.001900
C      2.386300    1.202300   -0.012800
C      3.627600    1.789500   -0.019100
N      4.529400    0.764500   -0.034200
N      3.975400   -0.353800   -0.037400
O      2.511300   -0.107600   -0.022900
H     -0.901600    1.933800    0.020600
H      1.144100    2.803500    0.008900
H      3.918600    2.825400   -0.014300
