14
gdb_21603
N      0.196600    1.380200   -0.086600
C      0.069200   -0.008600   -0.065800
C     -1.019000   -0.825400   -0.037700
O     -0.627300   -2.120900    0.049700
N      0.749800   -2.174100    0.069900
C      1.162300   -0.929800    0.015200
C      2.616500   -0.573800    0.017300
O      2.935000    0.326100   -1.046800
H      1.037800    1.663700   -0.575400
H     -0.612700    1.863000   -0.451600
H     -2.083000   -0.655400   -0.067400
H      2.872700   -0.032200    0.933900
H      3.221900   -1.487500   -0.017100
H      2.778200   -0.140500   -1.875100
