16
gdb_11277
C      0.091800    1.552900   -0.083100
C     -0.042300    0.035500    0.052900
O      0.575100   -0.609600   -1.067700
C      1.492100   -1.603200   -0.637500
C      1.532300   -1.480100    0.873800
C      0.647900   -0.551600    1.251800
C      2.384300   -2.269900    1.676800
C      3.131500   -2.968300    2.313800
H      1.144900    1.847400   -0.068900
H     -0.350500    1.881800   -1.027500
H     -0.428000    2.060500    0.736200
H     -1.116400   -0.220800    0.064400
H      1.156400   -2.605100   -0.947800
H      2.477100   -1.430300   -1.093400
H      0.435700   -0.249100    2.268700
H      3.783400   -3.576800    2.890300
