16
gdb_2601
C     -0.391800    1.471700   -0.028200
C      0.173300    0.049400    0.085000
C      0.790900   -0.454600   -1.203900
C      0.625600   -1.891100   -1.605500
N     -0.061200   -0.845400   -2.355600
C      2.064800    0.190700   -1.646300
O      2.726600    0.933300   -0.964400
H      0.400100    2.184200   -0.271100
H     -1.159500    1.536900   -0.806900
H     -0.847900    1.781300    0.916600
H      0.941700    0.024400    0.865200
H     -0.617000   -0.645800    0.393700
H      1.414200   -2.404800   -2.149300
H      0.063300   -2.518300   -0.918600
H     -1.037900   -0.790200   -2.075100
H      2.364200   -0.086600   -2.681300
