16
gdb_17121
O      0.163600    0.110700   -0.233700
C      0.079600    1.277600    0.013900
C     -1.089600    2.272900    0.067600
C     -0.152800    3.227200    0.883500
C      1.072900    2.332000    0.521400
C     -0.122700    4.667800    0.445500
C      1.108300    5.464300    0.394600
O      0.518300    4.947200   -0.802600
H     -1.317400    2.668600   -0.928400
H     -2.013000    1.920000    0.532100
H     -0.385500    3.180600    1.951600
H      1.760200    2.025700    1.312800
H      1.639300    2.756400   -0.315100
H     -1.062800    5.205800    0.583200
H      1.060100    6.546100    0.507800
H      2.055000    5.008000    0.679900
