22
gdb_8497
C      0.847700    0.858200   -0.070200
C      0.315300   -0.551300   -0.091900
C      0.512800   -1.623200   -1.212200
C     -0.348600   -2.319200   -0.119300
C      0.655400   -1.709500    0.901100
C     -1.204000   -1.003200   -0.007900
C     -1.976500   -0.734300    1.290400
C     -2.142000   -0.633900   -1.164700
H      1.940900    0.867600   -0.144600
H      0.451800    1.444700   -0.907200
H      0.572400    1.372000    0.857800
H      0.072000   -1.441000   -2.191000
H      1.532500   -2.003600   -1.320300
H     -0.724200   -3.344400   -0.135900
H      1.678200   -2.091900    0.840300
H      0.350800   -1.609800    1.941600
H     -1.427300   -0.958700    2.204800
H     -2.278300    0.318600    1.339500
H     -2.897700   -1.328500    1.309000
H     -3.059900   -1.230800   -1.108900
H     -2.443100    0.417500   -1.086200
H     -1.720900   -0.778700   -2.159600
