16
gdb_13826
C     -0.001900    1.456600    0.096900
C      0.005200   -0.049300    0.158700
O      1.015500   -0.720000    0.196200
C     -1.327700   -0.741000    0.160900
N     -2.446300   -0.142800   -0.033700
C     -3.475200   -1.199100    0.030300
C     -2.701600   -2.549000   -0.015300
N     -1.363800   -2.101100    0.381400
H      1.016500    1.822500   -0.036500
H     -0.655000    1.800800   -0.708900
H     -0.423100    1.857500    1.025300
H     -4.030800   -1.089900    0.971100
H     -4.194800   -1.088200   -0.785100
H     -3.100800   -3.295100    0.676600
H     -2.699600   -2.982600   -1.025600
H     -0.536300   -2.631400    0.152900
