16
gdb_16971
O      0.125800    1.397000    0.142000
C      0.019800   -0.001900    0.048700
C     -1.438000   -0.561100   -0.105500
C     -1.343000   -1.247000   -1.480600
C     -1.173400   -0.182900   -2.579100
O      0.164800    0.294700   -2.319200
C      0.638900   -0.555200   -1.259200
O     -0.001400   -1.786600   -1.455900
H      0.073500    1.721200   -0.768300
H      0.514400   -0.422400    0.927900
H     -1.676100   -1.291400    0.670500
H     -2.170400    0.247900   -0.063800
H     -2.060700   -2.037000   -1.694700
H     -1.217100   -0.612000   -3.585700
H     -1.888900    0.641300   -2.500300
H      1.722600   -0.643600   -1.317300
