18
gdb_16422
C     -0.180100    1.554900    0.074100
C      0.056300    0.048100    0.005300
O      0.792100   -0.315100   -1.174800
C      2.205300   -0.421600   -1.019000
C      2.552200   -0.894300    0.385500
C      1.455700   -1.840600    0.916800
C      0.780700   -0.493100    1.239800
O      2.091900    0.143900    1.302900
H      0.760700    2.080900    0.253000
H     -0.614800    1.908000   -0.864400
H     -0.870800    1.800000    0.888600
H     -0.905400   -0.473100   -0.094900
H      2.545300   -1.134800   -1.779300
H      2.701900    0.543600   -1.199200
H      3.610400   -1.135800    0.515400
H      0.962900   -2.512200    0.212200
H      1.770700   -2.369500    1.816600
H      0.206300   -0.366600    2.161400
