15
gdb_1444
C      0.115600    1.484300    0.257300
C     -0.108000   -0.016100    0.092900
C     -1.481100   -0.374400   -0.443500
O     -2.326100    0.451400   -0.702300
C     -1.777700   -1.865900   -0.628100
C     -3.039700   -2.260100    0.126700
O     -3.131400   -3.243100    0.812200
H      1.118400    1.684700    0.643900
H      0.002300    2.002500   -0.698200
H     -0.614700    1.913400    0.947900
H      0.637000   -0.464700   -0.580000
H      0.020400   -0.551200    1.045100
H     -1.985800   -2.015200   -1.696300
H     -0.953200   -2.517400   -0.332600
H     -3.881300   -1.550000   -0.008900
