18
gdb_20054
C      0.094100    1.393500   -0.173300
O      0.979500    0.298300   -0.422300
C     -0.326300    0.011300    0.083300
C     -0.406100   -0.570300    1.476400
C     -1.877000   -0.548000    1.989300
C     -2.338000   -1.973900    1.803600
C     -1.328900   -2.795700    1.521300
C     -0.003700   -2.075500    1.467800
H      0.369200    2.033500    0.664600
H     -0.261100    1.919200   -1.058800
H     -0.986800   -0.461800   -0.647700
H      0.257800    0.011800    2.121100
H     -1.932700   -0.249800    3.044900
H     -2.491800    0.174700    1.437800
H     -3.374200   -2.270500    1.923700
H     -1.416700   -3.866600    1.374100
H      0.594500   -2.329300    0.585000
H      0.615900   -2.331700    2.337800
