24
gdb_6932
C     -0.185300    1.541200    0.046400
C     -0.172800    0.020500   -0.127600
C      0.924500   -0.469000   -1.083600
C      0.933700   -1.976400   -1.238700
C      0.037100   -2.672700   -2.241500
C      1.540000   -2.715100   -2.415100
C      2.161400   -1.950500   -3.569800
C      2.241500   -4.027500   -2.114100
H      0.770400    1.902900    0.442600
H     -0.357400    2.048900   -0.909500
H     -0.972800    1.858900    0.737100
H     -0.038300   -0.459500    0.850900
H     -1.148100   -0.319200   -0.498700
H      0.786500    0.013800   -2.058500
H      1.901600   -0.128200   -0.712400
H      1.042800   -2.496500   -0.287900
H     -0.481100   -3.579000   -1.944600
H     -0.530100   -2.043900   -2.922100
H      1.617800   -1.032000   -3.803800
H      3.201200   -1.677100   -3.352300
H      2.168100   -2.567000   -4.476600
H      2.225900   -4.692700   -2.986200
H      3.291700   -3.862800   -1.843700
H      1.763000   -4.556700   -1.284000
