16
gdb_7289
C     -0.972900    1.256800    0.043100
C     -0.220000   -0.047200    0.043600
O      0.990100   -0.104100    0.126200
C     -0.993300   -1.370900   -0.085600
O     -0.085000   -2.415100   -0.289800
C     -1.836000   -1.689900    1.187600
C     -3.059700   -0.917700    1.343300
C     -4.078300   -0.288200    1.454600
H     -0.273100    2.085300    0.158500
H     -1.522600    1.364000   -0.898800
H     -1.722900    1.272200    0.839400
H     -1.683300   -1.293500   -0.938900
H      0.791600   -2.010600   -0.170200
H     -2.081000   -2.754700    1.109900
H     -1.195700   -1.585700    2.072100
H     -4.982000    0.259300    1.561500
