12
gdb_5467
O      0.096000    1.354700    0.112500
C      0.058100    0.008100    0.044900
C      0.030500   -0.787400   -1.100100
N     -0.004100   -2.108300   -0.669600
C      0.001100   -2.140200    0.687100
C      0.039300   -0.846100    1.169000
C      0.035400   -0.389100   -2.444500
N      0.041200   -0.012900   -3.544000
H      0.102100    1.720700   -0.780300
H     -0.029000   -2.905000   -1.281400
H     -0.022600   -3.077900    1.218700
H      0.052500   -0.539800    2.202000
