20
gdb_9840
C     -0.447600    1.412500   -0.019300
C      0.029900   -0.043300    0.018300
C      0.998800   -0.320500   -1.146300
O      0.426500   -0.085500   -2.423500
C      0.653300   -0.494300    1.338600
O      0.776200   -1.897600    1.436900
C      1.714000    0.313600    2.048400
C      0.332200    0.152200    2.652300
H      0.359300    2.111400    0.228600
H     -0.786800    1.653900   -1.029500
H     -1.275900    1.587900    0.671900
H     -0.844200   -0.696100   -0.128300
H      1.860200    0.353900   -1.080200
H      1.381400   -1.350800   -1.079300
H     -0.302200   -0.704800   -2.535700
H      1.564900   -2.164800    0.954100
H      2.526800   -0.239900    2.505600
H      1.992000    1.285700    1.655900
H     -0.320800    1.015800    2.675300
H      0.233900   -0.521100    3.495500
