15
gdb_4139
O     -0.170100    1.378300    0.072800
N      0.005300   -0.029700    0.072300
C     -1.105300   -0.623300    0.005100
C     -2.614800   -0.416500   -0.019400
C     -2.628100   -1.592300   -1.053300
C     -1.587300   -2.061100    0.017200
C     -2.628400   -1.546200    1.081600
O     -2.239000   -1.280200    2.387600
H      0.741300    1.688500    0.099100
H     -3.175800    0.513700   -0.043400
H     -3.554200   -2.171500   -1.098000
H     -2.234500   -1.369400   -2.044400
H     -0.998600   -2.975300    0.034800
H     -3.556200   -2.121000    1.128500
H     -1.406300   -0.790700    2.369200
