19
gdb_13564
C     -0.608000    1.265200    0.092500
C     -0.059400   -0.144200    0.088800
C      1.363300   -0.392000   -0.346700
C      0.978300   -0.604400    1.096400
N      1.455800    0.276300    2.121000
C      0.589600    0.500100    3.270100
C      2.768700    0.658300    2.192500
O      3.268100    1.289500    3.100600
H      0.129700    1.974600    0.478300
H     -0.875700    1.579800   -0.921800
H     -1.508000    1.343700    0.711500
H     -0.779000   -0.909800   -0.188300
H      1.600600   -1.266200   -0.942000
H      1.955700    0.484100   -0.586200
H      0.885000   -1.641700    1.419400
H      0.325000   -0.451400    3.749000
H      1.133000    1.121300    3.981900
H     -0.333300    1.002600    2.967000
H      3.337400    0.332000    1.303800
