16
gdb_12471
O     -0.011700   -0.175500   -0.007200
C     -0.026900    1.048600   -0.032000
N     -1.223800    1.717100    0.154900
C     -1.509700    3.099300   -0.157500
C     -0.673200    4.088400    0.665300
N      0.683600    4.197800    0.169900
C      1.485700    3.137700   -0.133300
C      1.207400    1.818100   -0.239100
H     -2.003300    1.080100    0.219200
H     -1.374700    3.327000   -1.224900
H     -2.563100    3.271000    0.080200
H     -1.125200    5.083300    0.600800
H     -0.699600    3.770600    1.717800
H      1.147400    5.075800    0.325200
H      2.508300    3.444800   -0.338700
H      2.039800    1.173800   -0.492400
