17
gdb_8375
C      0.017300    1.461500   -0.254100
N      0.113000    0.020900   -0.068600
C      1.461100   -0.549700   -0.027400
C      0.624800   -0.470300    1.195300
C      0.926700    0.340300    2.476100
C      0.366500   -0.857400    3.272300
O      0.300800   -1.109600    4.439000
C     -0.033300   -1.611500    1.990400
H      0.830100    2.027500    0.230200
H      0.037800    1.683700   -1.325300
H     -0.936800    1.819100    0.146700
H      1.593600   -1.494000   -0.550000
H      2.307100    0.134400   -0.097300
H      1.969800    0.590100    2.689400
H      0.321900    1.245800    2.600400
H     -1.116700   -1.687800    1.849100
H      0.404500   -2.609000    1.888200
