22
gdb_7833
C     -0.405900    1.385200   -0.161700
C      0.116500   -0.045500    0.026800
C      0.901400   -0.502600   -1.210000
C      0.982000   -0.193100    1.293100
C      0.256500    0.091500    2.592800
C     -0.680700   -0.945600    3.190100
C      0.632500   -0.623700    3.859200
O      1.687500   -1.540900    3.787200
H      0.425300    2.095500   -0.252500
H     -1.009900    1.465900   -1.071700
H     -1.030300    1.706800    0.677200
H     -0.752500   -0.708900    0.142400
H      1.787100    0.125600   -1.365400
H      1.244600   -1.537400   -1.105600
H      0.289400   -0.440500   -2.116200
H      1.390900   -1.207500    1.338100
H      1.849500    0.477900    1.211900
H     -0.043700    1.125800    2.735700
H     -1.607000   -0.627800    3.656500
H     -0.734300   -1.901600    2.677900
H      0.600000   -0.048800    4.785000
H      1.459700   -2.296000    4.339000
