16
gdb_17488
C     -0.001400    1.489100    0.057900
C     -0.054200   -0.008800   -0.072200
C      0.757900   -0.673200   -1.181700
O      0.368700   -2.050800   -1.138800
C     -0.816700   -2.124100   -0.383900
C     -0.785800   -1.562900    1.026900
O      0.340500   -0.702200    1.168300
C     -1.405800   -0.774500   -0.101300
H      1.026400    1.819700    0.239000
H     -0.362800    1.969300   -0.857400
H     -0.619400    1.821000    0.895700
H      0.534500   -0.239900   -2.169100
H      1.832600   -0.604000   -0.988000
H     -1.431700   -2.985700   -0.614100
H     -1.195500   -2.026900    1.917100
H     -2.395700   -0.392600   -0.312500
