20
gdb_12884
C     -0.054900    1.578800    0.082900
C      0.040300    0.071300    0.040100
C      1.310100   -0.682300   -0.352900
C      2.643700    0.062100   -0.325600
C      2.953400    0.143100    1.184800
O      1.698900    0.040200    1.862600
C      0.812400   -0.725000    1.068500
C      0.253000   -1.933600    1.768500
H      0.785900    2.016600    0.625100
H     -0.081900    2.009800   -0.924200
H     -0.969400    1.888100    0.600200
H     -0.866800   -0.419700   -0.307200
H      1.209800   -1.542400   -1.005600
H      3.418500   -0.488100   -0.866200
H      2.575700    1.057400   -0.776500
H      3.613700   -0.683400    1.489800
H      3.421200    1.083800    1.490500
H     -0.317700   -1.639000    2.655800
H     -0.416000   -2.489500    1.104700
H      1.055100   -2.606100    2.091600
