18
gdb_276
C      0.070200    1.507400    0.007500
C     -0.111400    0.001500   -0.098300
O      0.717400   -0.472000   -1.139500
C      0.771300   -1.886300   -1.282700
C     -0.500700   -2.448500   -1.926400
C      2.012800   -2.186600   -2.116300
H      1.113900    1.753800    0.222300
H     -0.208500    1.993100   -0.932100
H     -0.556900    1.913200    0.807200
H      0.159800   -0.486900    0.853500
H     -1.169700   -0.236500   -0.290000
H      0.892800   -2.339400   -0.283200
H     -0.420900   -3.533900   -2.045400
H     -1.388200   -2.247200   -1.319800
H     -0.651900   -2.002300   -2.914800
H      2.904200   -1.776900   -1.634000
H      2.145400   -3.265400   -2.241700
H      1.921600   -1.731600   -3.107800
