18
gdb_16447
C     -0.095800    1.530900    0.064200
C      0.156900    0.059900    0.004500
O     -0.759100   -0.808100    0.690700
C      0.640600   -0.928800    0.991400
C      1.292700   -1.795400   -0.110800
C      0.402000   -2.897000   -0.758900
C     -0.114800   -1.862200   -1.809000
C      0.776400   -0.760500   -1.163500
H      0.797100    2.091100   -0.231700
H     -0.908900    1.813100   -0.615000
H     -0.379800    1.829500    1.077000
H      0.918800   -0.826300    2.035800
H      2.357100   -1.989200    0.023300
H      0.981200   -3.713400   -1.196900
H     -0.362500   -3.316500   -0.102800
H      0.173200   -2.099300   -2.836000
H     -1.187700   -1.664400   -1.777800
H      1.466900   -0.204200   -1.798500
