20
gdb_9554
C     -0.028500    1.562900    0.083400
C     -0.077700    0.037700   -0.061000
C      0.696600   -0.492200   -1.273200
O      0.207800    0.042700   -2.489600
C      2.251000   -0.496500   -1.084100
C      2.164700   -1.994200   -0.683700
C      0.756200   -2.036600   -1.335300
O     -0.295000   -2.702800   -0.677100
H      0.999500    1.936900    0.146500
H     -0.521300    2.068600   -0.755400
H     -0.550500    1.882100    0.990200
H      0.319700   -0.429500    0.846700
H     -1.115800   -0.297300   -0.149300
H      0.223900    1.003200   -2.427200
H      2.750600   -0.349600   -2.044400
H      2.673200    0.193700   -0.350200
H      2.925500   -2.671600   -1.077500
H      2.092900   -2.129000    0.398800
H      0.823200   -2.331000   -2.391100
H     -0.214200   -3.645200   -0.850700
