18
gdb_13399
C     -0.093600    1.413100    0.620300
O     -0.183800    0.017400    0.775700
C      0.934700   -0.668800    0.260000
C      0.698500   -2.166500    0.469800
O      1.767100   -2.892600   -0.140200
C      2.370900   -3.774300    0.804800
C      1.661500   -3.502800    2.101800
C      0.709500   -2.597300    1.911100
H     -0.019000    1.700700   -0.440300
H     -1.002300    1.850000    1.041700
H      0.779200    1.827800    1.149100
H      1.064300   -0.467700   -0.815800
H      1.862000   -0.365000    0.772900
H     -0.255100   -2.424700   -0.019200
H      2.252800   -4.819100    0.474500
H      3.452100   -3.574400    0.859700
H      1.915700   -3.998800    3.030100
H      0.023600   -2.192600    2.642500
