12
gdb_8618
O     -0.038700    1.454400   -0.054100
C      0.063300    0.034500   -0.117100
C     -1.428900   -0.429800   -0.120400
O     -1.858500   -1.344700   -0.754600
C      0.779300   -0.425100   -1.307500
C      1.371800   -0.769900   -2.292800
C      0.661000   -0.516100    1.108100
C      1.108100   -0.947200    2.136900
H      0.852400    1.808400    0.047600
H     -2.038700    0.200300    0.558400
H      1.889700   -1.085100   -3.165300
H      1.517500   -1.335000    3.037700
