22
gdb_8311
C     -0.087700    1.498200   -0.291500
C     -0.085800   -0.025100   -0.142000
C     -1.476300   -0.602200    0.147000
C     -1.474800   -2.116000    0.252200
C     -2.822000   -2.868400    0.264200
C     -2.238300   -3.647000   -0.935300
C     -3.010200   -3.681000   -2.238000
O     -1.091700   -2.762500   -0.989000
H      0.916800    1.880000   -0.499500
H     -0.739900    1.814400   -1.113400
H     -0.447600    1.987500    0.620900
H      0.300300   -0.490700   -1.055700
H      0.600500   -0.315200    0.664700
H     -1.869900   -0.189000    1.086900
H     -2.173400   -0.304500   -0.647400
H     -0.802400   -2.433200    1.064600
H     -3.060000   -3.444500    1.159700
H     -3.675600   -2.237500    0.001000
H     -1.918200   -4.663500   -0.662100
H     -3.353300   -2.678700   -2.512600
H     -2.378200   -4.060700   -3.047300
H     -3.882400   -4.338200   -2.148700
