12
gdb_5684
O     -0.054900    1.308800    0.009600
C      1.245100    1.772400   -0.000100
C      2.127700    0.752000   -0.014200
N      1.359400   -0.409800   -0.013400
C      1.358700   -1.796700   -0.021000
C      0.023600   -2.131000   -0.009900
N     -0.809800   -1.021400    0.004000
C      0.043100   -0.039600    0.001200
H      1.368900    2.840600    0.004600
H      3.203300    0.761400   -0.024500
H      2.260800   -2.382400   -0.032900
H     -0.393400   -3.126600   -0.011300
