11
gdb_403
C     -0.025400    1.514100    0.022300
C     -0.012200    0.004700   -0.064600
C      0.762100   -0.712300   -1.098900
O      1.223300   -0.645300    0.247800
C     -1.190800   -0.658800    0.474500
N     -2.143300   -1.156000    0.899800
H      0.894400    1.913700   -0.410400
H     -0.883800    1.923600   -0.517800
H     -0.090900    1.835500    1.065400
H      0.433700   -1.693100   -1.435200
H      1.325100   -0.122500   -1.820500
