15
gdb_7919
N      0.022000    1.351400   -0.038600
C     -0.081700    0.001300    0.005800
C     -1.175800   -0.799200    0.038500
C     -0.781600   -2.203200    0.062200
O     -1.496400   -3.180900    0.131900
C      0.759200   -2.251700   -0.048400
C      1.216600   -0.792600    0.084300
O      2.181000   -0.330400   -0.856300
H      0.914100    1.717800   -0.335200
H     -0.785600    1.905500   -0.272100
H     -2.210400   -0.480700    0.036700
H      1.184300   -2.918800    0.704700
H      1.035200   -2.658900   -1.028300
H      1.684900   -0.609800    1.058200
H      1.873900   -0.576900   -1.736600
