18
gdb_9968
C      0.168100    1.090400   -0.390200
O     -0.118200   -0.130300    0.288500
C     -1.422900   -0.610100    0.122700
C     -2.478600    0.043600    0.980300
C     -1.794100   -1.199100   -1.239600
O     -0.883300   -1.154700   -2.289000
C     -1.431400   -2.110900   -0.081000
O     -0.186400   -2.735800   -0.214900
H      1.221700    1.309200   -0.201800
H     -0.002900    0.987800   -1.465400
H     -0.436000    1.917500    0.004400
H     -2.614800    1.098000    0.716300
H     -3.443900   -0.454500    0.848200
H     -2.206300   -0.015200    2.039400
H     -2.830300   -1.120100   -1.560000
H     -0.252100   -1.869700   -2.110100
H     -2.177600   -2.727300    0.412200
H      0.462200   -2.100200    0.124500
