14
gdb_20735
C     -0.035500    1.471600   -0.034600
C     -0.011000   -0.020300    0.022800
N     -0.027400   -0.756800   -1.081200
N      0.004000   -2.035700   -0.645500
C      0.039700   -2.141500    0.698100
C      0.031400   -0.845300    1.190500
C      0.058500   -0.427000    2.538400
C      0.081100   -0.042400    3.680000
H      0.856200    1.899500    0.435600
H     -0.078000    1.803600   -1.073600
H     -0.903000    1.872900    0.499800
H     -0.001700   -2.780000   -1.321600
H      0.067500   -3.092500    1.205100
H      0.101300    0.291200    4.687300
