12
gdb_20673
C     -0.035700    1.519500    0.041800
C     -0.011900    0.026500   -0.000100
C     -0.027300   -0.819000   -1.062600
O      0.005200   -2.102200   -0.658800
N      0.043900   -2.151600    0.712000
C      0.034200   -0.889500    1.099800
C      0.066800   -0.554700    2.483700
N      0.092000   -0.222900    3.591200
H      0.852900    1.915800    0.543500
H     -0.070300    1.937200   -0.966800
H     -0.908500    1.886300    0.591500
H     -0.059700   -0.662500   -2.129500
