15
gdb_15301
N     -0.287900    1.171200   -0.037800
C     -0.468000   -0.044600   -0.314500
O     -0.971500   -0.875900    0.632600
C     -0.996300   -2.234200    0.309000
C     -2.123600   -3.017400    0.880600
C     -2.078700   -2.772900   -0.626600
C     -3.013000   -1.882800   -1.245200
C     -3.785000   -1.134100   -1.783600
H      0.078100    1.660700   -0.851800
H     -0.265600   -0.545500   -1.268700
H     -0.013900   -2.696000    0.242100
H     -1.935800   -4.022100    1.240100
H     -2.861600   -2.450300    1.434500
H     -1.775700   -3.619700   -1.236200
H     -4.473200   -0.471700   -2.247400
