14
gdb_9939
N     -0.231200    1.388000   -0.023300
C     -0.034900   -0.041200   -0.024700
C      1.040200   -0.588000   -0.801100
N      1.903900   -1.027500   -1.435500
C     -0.443500   -0.773700    1.277800
O     -0.824800   -0.002700    2.357300
C     -1.361200   -0.829500    0.095200
O     -2.492400   -0.033200    0.188300
H      0.210800    1.816800    0.783700
H      0.129400    1.813100   -0.869000
H      0.154600   -1.640600    1.540200
H     -1.754000    0.230200    2.201300
H     -1.491600   -1.744700   -0.472300
H     -2.174000    0.874000    0.003100
