17
gdb_6287
C      0.009700    1.539600    0.019600
C     -0.015300    0.015400    0.062400
O      0.685900   -0.475700    1.220700
C     -1.438900   -0.553300   -0.011300
C     -1.458500   -2.096900   -0.051500
O     -0.963300   -2.686100    1.129300
C     -2.836900   -2.576700   -0.259200
N     -3.921600   -2.921700   -0.454400
H      1.037300    1.903400    0.101400
H     -0.418700    1.913500   -0.915000
H     -0.575000    1.962700    0.845800
H      0.566200   -0.379000   -0.780200
H      0.339200   -0.013500    1.993500
H     -2.023600   -0.217100    0.853900
H     -1.933000   -0.166600   -0.909500
H     -0.876800   -2.424300   -0.931800
H     -0.167500   -2.177700    1.356800
