11
gdb_21845
O     -0.063200    0.014500    0.158700
C     -0.012800    1.182800   -0.050100
O      1.064400    1.931200    0.362000
C      1.016100    3.277300    0.191800
N     -0.095300    3.995800    0.317300
N      0.344000    5.232500    0.096600
N      1.637300    5.371900   -0.142800
C      2.100000    4.123000   -0.091900
H     -0.765900    1.789500   -0.574700
H     -0.278900    6.023300    0.127500
H      3.139200    3.889100   -0.249200
