17
gdb_2945
C      0.023600    1.523500    0.113000
C     -0.043400   -0.005000    0.080900
C     -1.465200   -0.536600   -0.071800
C     -1.574300   -2.076600   -0.082100
O     -2.751000   -2.340600    0.665500
C     -2.769500   -1.336000    1.645800
O     -2.288300   -0.154400    1.040800
H      1.052000    1.871600    0.247200
H     -0.357000    1.955700   -0.819100
H     -0.582000    1.914700    0.934800
H      0.559500   -0.392500   -0.751800
H      0.386800   -0.420500    1.000900
H     -1.922000   -0.112800   -0.977100
H     -1.695400   -2.501300   -1.080600
H     -0.692900   -2.533100    0.396800
H     -3.800000   -1.186000    1.982600
H     -2.128700   -1.614500    2.503300
