12
gdb_2736
O     -0.059800   -0.013300   -0.078100
C     -0.055600    1.170100    0.029300
C     -1.109400    2.268400    0.217500
N     -0.007900    3.218600    0.515700
C      1.054700    2.271700    0.061000
C      2.196100    2.094700    0.933700
C      3.141800    1.917400    1.653600
H     -1.672700    2.451800   -0.708600
H     -1.819600    2.121600    1.038000
H     -0.037700    4.079200   -0.017700
H      1.394400    2.447700   -0.972700
H      3.974600    1.766000    2.295100
