12
gdb_16795
O      0.038300   -0.032400   -0.045300
C      0.036200    1.168800    0.009900
N     -1.080100    1.999800    0.055000
C     -0.775800    3.361800    0.031800
O     -1.557000    4.266400    0.086900
N      0.655900    3.493400   -0.078700
C      1.333300    3.048700    1.156300
C      1.200700    2.123900   -0.004300
H     -2.027400    1.658100    0.121700
H      2.291200    3.523200    1.340400
H      0.723600    2.869000    2.037500
H      2.055200    1.878300   -0.623500
