24
gdb_7392
C     -0.123100    1.566300   -0.066800
C     -0.050400    0.038700   -0.008700
C      0.735200   -0.482900    1.200200
C      0.870900   -2.011100    1.217900
O      1.573700   -2.482800    0.065900
C      1.469300   -2.577800    2.526900
C      1.349000   -4.107500    2.546900
C      2.925500   -2.145100    2.758000
H      0.877300    2.009400   -0.131700
H     -0.692800    1.905600   -0.937600
H     -0.606300    1.977200    0.827100
H     -1.066400   -0.376800    0.019300
H      0.410500   -0.352100   -0.922400
H      1.736600   -0.027900    1.205900
H      0.249000   -0.155900    2.129200
H     -0.133500   -2.441500    1.106700
H      2.434500   -2.050800    0.053000
H      0.861300   -2.172400    3.347900
H      1.881000   -4.541200    1.694900
H      1.770000   -4.526600    3.466500
H      0.302600   -4.424400    2.481300
H      3.581100   -2.521700    1.963700
H      3.036000   -1.057500    2.805300
H      3.302100   -2.554100    3.700600
