14
gdb_2588
C      0.048800    1.464800    0.304100
C     -0.033200    0.030100   -0.227500
C     -1.429400   -0.554600   -0.120200
C     -1.659600   -1.970600    0.231700
O     -1.858500   -0.937000    1.192200
C     -2.451600    0.116500   -0.911500
N     -3.235000    0.663000   -1.562100
H      1.071700    1.843100    0.228200
H     -0.602300    2.135600   -0.264700
H     -0.254200    1.505200    1.354200
H      0.281100   -0.008500   -1.277100
H      0.638300   -0.624400    0.337500
H     -2.561500   -2.472100   -0.112400
H     -0.791900   -2.607300    0.395700
