20
gdb_8030
C     -0.200300    1.545100    0.035300
C      0.031000    0.050300    0.023700
C     -1.186200   -0.894800    0.187600
C     -0.360700   -1.789900    1.159000
C      0.787300   -0.742100    1.165700
C      1.936100   -1.043400    0.190500
O      2.343000   -2.394200    0.171400
C      1.083900   -0.494600   -0.995300
H      0.744200    2.100200    0.075500
H     -0.731900    1.866900   -0.869300
H     -0.803400    1.848400    0.898700
H     -2.023200   -0.400000    0.690700
H     -1.566200   -1.362700   -0.726400
H     -0.827200   -1.954900    2.132100
H     -0.056200   -2.757400    0.756000
H      1.047100   -0.307900    2.132700
H      2.792300   -0.382200    0.389400
H      3.001700   -2.501200   -0.522000
H      0.698300   -1.284500   -1.646900
H      1.575200    0.262300   -1.613100
