17
gdb_5523
C     -0.358700    1.632200   -0.155400
C      0.069400    0.165600    0.028200
C      0.857500   -0.370900   -1.114300
C      2.127300   -0.824200   -1.290700
C      3.244600   -0.954500   -0.310500
N      2.293400   -1.195800   -2.628200
C      1.149800   -0.952800   -3.172400
O      0.218300   -0.451500   -2.333100
H      0.513900    2.284900   -0.253400
H     -0.968400    1.747800   -1.055700
H     -0.947700    1.972600    0.701400
H      0.674900    0.062400    0.934200
H     -0.823000   -0.455700    0.179800
H      3.585200   -1.993200   -0.243500
H      4.106300   -0.352600   -0.618700
H      2.941600   -0.629300    0.687900
H      0.850300   -1.099500   -4.198500
