20
gdb_6218
C      0.543000    1.306300    0.258600
C     -0.063300   -0.074700   -0.009900
O     -1.485600    0.020500   -0.085100
C      0.541200   -0.751200   -1.266600
C      1.798300   -1.509300   -0.782800
C      1.671200   -1.625800    0.767100
O      2.623700   -0.808000    1.450700
C      0.274600   -1.088800    1.097700
H      1.622400    1.240100    0.412400
H      0.352500    1.983000   -0.584400
H      0.096500    1.742300    1.157500
H     -1.701400    0.744000   -0.682600
H     -0.208400   -1.452600   -1.646400
H      0.756700   -0.036900   -2.067800
H      1.882700   -2.491400   -1.257000
H      2.716100   -0.960900   -1.018600
H      1.784400   -2.666400    1.100400
H      3.503000   -1.106000    1.197100
H      0.237500   -0.665300    2.104000
H     -0.460600   -1.898100    1.040600
