17
gdb_3356
C     -0.058600    1.456900   -0.361900
C      1.368100    1.659400    0.220400
C      1.427200    0.158100    0.621500
C      1.242400   -0.138500    2.112100
O     -0.137500    0.087000    2.381300
C     -0.843600   -0.434800    1.260400
C     -0.015800   -0.046800    0.032400
H     -0.844600    2.028800    0.139100
H     -0.137500    1.634900   -1.436900
H      2.119000    1.955000   -0.516100
H      1.425400    2.351200    1.065400
H      2.240500   -0.417500    0.176400
H      1.511400   -1.185600    2.332200
H      1.821500    0.515300    2.771300
H     -0.928600   -1.532200    1.335900
H     -1.850300   -0.006300    1.272200
H     -0.129000   -0.753900   -0.791000
