18
gdb_15659
O     -0.065400    1.442100    0.001700
C      0.057700    0.025700    0.060500
C     -1.349500   -0.552400   -0.049300
C     -2.043900   -0.313100   -1.373600
C     -2.769700   -1.368500   -1.745400
C     -2.682300   -2.485900   -0.728500
C     -1.427500   -2.099200    0.092800
O     -0.262800   -2.745300   -0.412500
H      0.819200    1.818900    0.004700
H      0.689000   -0.352400   -0.755400
H      0.519100   -0.298900    1.005900
H     -1.941200   -0.087800    0.754200
H     -1.962300    0.628100   -1.903600
H     -3.384800   -1.427600   -2.636600
H     -3.582300   -2.514200   -0.098200
H     -2.566400   -3.485900   -1.160500
H     -1.490300   -2.414700    1.137200
H     -0.224800   -2.562700   -1.358800
