15
gdb_16860
N     -0.104400    1.152000    0.540400
C     -0.004800    0.047000   -0.058900
O      1.170200   -0.632500   -0.193400
C      1.339900   -1.523000   -1.306100
C      0.181800   -2.483600   -1.410100
C     -0.478300   -2.950300   -0.125300
C     -1.109100   -1.877700   -0.969500
O     -1.116700   -0.524700   -0.570100
H      0.823000    1.473000    0.810300
H      1.435800   -0.937800   -2.230800
H      2.290200   -2.029400   -1.118500
H      0.194800   -3.141600   -2.272900
H     -0.955500   -3.923500   -0.117800
H     -0.019800   -2.658000    0.812400
H     -2.034900   -2.082600   -1.491400
