12
gdb_4416
O      0.046400    1.326800    0.007400
C     -0.051800   -0.003900    0.001200
C     -1.241100   -0.665200    0.004400
C     -1.175400   -2.079900   -0.003100
C      0.008500   -2.757300   -0.013100
C      1.264700   -2.066300   -0.016700
O      2.388300   -2.477400   -0.024800
O      1.123400   -0.620100   -0.008500
H      0.986000    1.556200    0.003300
H     -2.169200   -0.114400    0.012300
H     -2.104900   -2.641100   -0.000700
H      0.060700   -3.837400   -0.018700
