19
gdb_19160
O      0.067500    1.470400    0.041100
C     -0.002300    0.056000    0.154300
C     -1.423100   -0.496100    0.074400
C     -2.517700    0.250400    0.794900
C     -2.463400    0.269300   -0.713100
C     -1.533500   -1.993800    0.038700
N     -0.577900   -2.743000   -0.796000
C     -0.565200   -2.932400    0.665800
H      0.007600    1.693000   -0.892200
H      0.618600   -0.439400   -0.603300
H      0.423200   -0.178500    1.136800
H     -3.302000   -0.321900    1.279700
H     -2.232400    1.162300    1.307000
H     -2.174400    1.201700   -1.184400
H     -3.200300   -0.301100   -1.268800
H     -2.566900   -2.340700    0.023800
H     -1.039300   -3.524600   -1.252200
H      0.325900   -2.561400    1.162800
H     -0.952600   -3.859700    1.080600
