21
gdb_10722
C      0.553200    1.540500   -0.219600
C      0.036700    0.117900    0.067900
C      0.131400   -0.745500   -1.197000
C      0.723000   -0.479600    1.301000
C      0.197000    0.054900    2.635800
O      1.008200   -0.328900    3.721000
C      1.311700   -1.842700    1.310100
N      2.190700   -0.652900    1.330800
H      1.604700    1.521900   -0.528700
H     -0.019800    2.000700   -1.030600
H      0.478000    2.192200    0.654700
H     -1.029000    0.199300    0.325700
H      1.173100   -0.917000   -1.495300
H     -0.347300   -1.719100   -1.063300
H     -0.361200   -0.241600   -2.034200
H      0.104400    1.152500    2.578100
H     -0.808700   -0.344800    2.816100
H      1.916400   -0.257400    3.388400
H      1.311200   -2.407900    2.236900
H      1.282300   -2.438900    0.405000
H      2.596200   -0.492600    0.412400
