14
gdb_7035
O      0.541100   -0.157200    0.415900
C      0.241800    0.863200   -0.143800
C      1.037600    2.154200   -0.001500
C      1.111200    2.943000   -1.304400
O      0.177400    2.978700   -2.072700
C      2.410400    3.684900   -1.598800
C      2.176900    5.015700   -2.302300
O      2.829600    5.999600   -2.078300
H     -0.641100    0.940900   -0.808400
H      0.496600    2.791400    0.715200
H      2.018400    1.940300    0.429000
H      3.030400    3.837100   -0.712600
H      2.979900    3.047000   -2.292400
H      1.352500    5.003700   -3.042000
