12
gdb_601
C     -0.075200    1.530900   -0.062000
C     -0.010200    0.030100    0.056700
N      1.287300   -0.603100   -0.180400
C      0.706700   -0.662800    1.177800
C      1.394300    0.075600    2.209800
N      1.917100    0.664400    3.056400
H      0.830200    1.991100    0.339800
H     -0.171400    1.822500   -1.112600
H     -0.938800    1.924500    0.483100
H     -0.893100   -0.502300   -0.295100
H      1.184800   -1.509700   -0.628800
H      0.293000   -1.606300    1.523500
