17
gdb_5255
C     -0.006400    1.530600   -0.001000
C     -0.047000    0.007900    0.065600
N     -1.403700   -0.485200   -0.117800
C     -1.608400   -1.860500   -0.035300
C     -0.681000   -2.864600   -0.058500
O     -1.305900   -4.086100   -0.024600
C     -2.634000   -3.846400    0.035100
C     -2.889700   -2.513500    0.029700
H      1.019400    1.893700    0.106200
H     -0.404400    1.888300   -0.955000
H     -0.601000    1.977100    0.804700
H      0.572000   -0.413900   -0.736700
H      0.392700   -0.343400    1.015900
H     -2.083800    0.041300    0.414600
H      0.392800   -2.888600   -0.108500
H     -3.268900   -4.716500    0.074100
H     -3.858400   -2.038800    0.059200
