16
gdb_8801
C     -0.042000    1.529200   -0.031100
C      0.033200    0.008200    0.059700
C      0.770100   -0.476700    1.287800
O      1.256400    0.242100    2.122700
C      0.863600   -2.017700    1.408800
O      0.389100   -2.770700    0.593600
O      1.522000   -2.386900    2.506800
C      1.653900   -3.803600    2.695400
H      0.957800    1.970400   -0.062200
H     -0.582000    1.833000   -0.931600
H     -0.555100    1.949300    0.838000
H     -0.962400   -0.454300    0.067100
H      0.524500   -0.433600   -0.817100
H      0.669400   -4.272300    2.768500
H      2.195900   -4.251300    1.858500
H      2.209300   -3.927200    3.624200
