13
gdb_4019
N      0.021300    1.341500   -0.153500
C     -0.064700   -0.000000    0.009800
N      1.104200   -0.664700    0.156000
H      0.986500   -1.672900    0.122600
H      1.936100   -0.276300   -0.260200
C     -1.285700   -0.708900    0.019700
C     -2.571300   -0.031100    0.125800
O     -3.671400   -0.522100    0.017600
N     -1.081200   -2.090900   -0.033700
O     -2.053600   -2.831600   -0.002200
H      0.846700    1.819100    0.170500
H     -0.823200    1.885800   -0.191900
H     -2.485900    1.064200    0.361900
