20
gdb_17275
C     -0.087600    1.449000   -0.197600
C      0.132300   -0.027400    0.036600
N      1.524500   -0.502800    0.117600
C      0.648500   -0.623400    1.299000
C      1.037600    0.168400    2.524600
N      1.949200   -0.614100    3.356000
C      3.364800   -0.518800    3.006100
C      2.836800    0.147500    4.228100
H      0.658400    2.052400    0.323600
H     -0.013400    1.680000   -1.265800
H     -1.083000    1.754800    0.143000
H     -0.564500   -0.663000   -0.510100
H      1.628100   -1.401700   -0.344500
H      0.281900   -1.619800    1.541400
H      1.478500    1.131900    2.221000
H      0.143500    0.385600    3.123200
H      3.932400   -1.441800    3.085900
H      3.633800    0.111800    2.162200
H      2.762100    1.234000    4.210100
H      3.012700   -0.278300    5.212000
