18
gdb_17948
O     -0.111100    1.407900   -0.058800
C      0.024300    0.035000   -0.025900
C     -1.052300   -1.015200    0.054400
C     -0.452400   -1.778300   -1.126500
C      0.823900   -0.876700   -1.013800
C      1.904900   -1.547900   -0.155700
C      1.189600   -1.816000    1.200900
C     -0.005800   -0.863200    1.175700
H      0.628000    1.798900    0.420200
H     -2.105700   -0.895800    0.279800
H     -0.301100   -2.858600   -1.018300
H     -1.006600   -1.589500   -2.049400
H      1.174800   -0.427200   -1.942700
H      2.300000   -2.461400   -0.611500
H      2.749300   -0.862100   -0.014100
H      0.874100   -2.861200    1.290100
H      1.844600   -1.612000    2.053700
H     -0.406900   -0.460600    2.099700
