16
gdb_15872
O      0.551100    0.796800   -0.872200
C      0.111900   -0.217600   -0.021900
C      0.051000    0.015700    1.510900
C     -1.248000   -0.832000    1.550700
O     -2.289000   -0.486300    2.412200
C     -1.420400   -0.596100   -0.000500
C     -2.261500    0.547800   -0.280900
C     -2.918000    1.542700   -0.460200
H     -0.082400    1.523300   -0.813300
H      0.702500   -1.103800   -0.267700
H      0.899100   -0.300900    2.120600
H     -0.173600    1.065900    1.727000
H     -1.030800   -1.886800    1.736700
H     -2.628500    0.373000    2.131300
H     -1.722200   -1.459400   -0.598700
H     -3.525500    2.392600   -0.654100
