10
gdb_21325
N      0.021600   -1.125700   -0.003100
C      0.001600    0.029400    0.002900
C     -0.032200    1.472000    0.010300
N     -1.239100    2.053900    0.029900
C     -1.205000    3.377500    0.037200
C      0.014900    4.057000    0.025100
N      1.176800    3.406600    0.006100
N      1.159900    2.080400   -0.001400
H     -2.155000    3.905100    0.052800
H      0.073100    5.140300    0.030600
