17
gdb_3604
O     -0.439400    1.064700    1.327500
C     -0.086600    0.073300    0.406500
C     -0.722400   -1.268100    0.616900
C     -1.108900   -0.435700   -0.589500
C     -2.453500    0.206200   -0.755600
C     -3.720800   -0.620500   -0.761900
C     -3.454200    0.344300    0.362900
H     -0.614500    1.875900    0.839500
H      0.956200    0.100800    0.089000
H     -0.132100   -2.164000    0.460800
H     -1.422300   -1.328000    1.442800
H     -0.683100   -0.779700   -1.530300
H     -2.446100    1.030400   -1.466500
H     -4.493200   -0.380100   -1.484200
H     -3.620300   -1.679300   -0.548500
H     -3.200700   -0.057600    1.336100
H     -4.036900    1.258100    0.406900
