20
gdb_13719
C     -0.429100    1.195700   -0.107200
C      0.256100   -0.166800    0.024600
C      0.681600   -0.731200   -1.322700
O      1.331100   -1.983800   -1.106900
C      1.761900   -2.579300   -2.297600
C      2.066100   -4.052000   -2.213500
C      0.805600   -3.575700   -2.905700
O     -0.434900   -3.747500   -2.291100
H      0.237900    1.935400   -0.563400
H     -1.328500    1.132100   -0.729400
H     -0.729600    1.579400    0.871800
H      1.142100   -0.088600    0.664800
H     -0.417500   -0.882700    0.510600
H     -0.186400   -0.865300   -1.985400
H      1.376300   -0.039900   -1.826700
H      2.375800   -1.937200   -2.929000
H      2.887200   -4.443000   -2.804400
H      1.939800   -4.514100   -1.239800
H      0.727800   -3.666900   -3.983900
H     -0.357700   -3.337300   -1.419100
