14
gdb_11181
O      0.002700    0.021300   -0.201900
C     -0.023100    1.207400   -0.026100
C     -1.272800    2.067700    0.180500
N     -0.733100    3.351800    0.628300
C      0.565800    3.550600   -0.031800
C      1.191300    2.143900    0.026100
C      0.439400    4.032100   -1.426400
N      0.288800    4.422800   -2.504300
H     -1.816300    2.105300   -0.778700
H     -1.935500    1.621900    0.927200
H     -1.364700    4.128000    0.473000
H      1.154300    4.288300    0.521400
H      1.693600    2.001700    0.988300
H      1.901400    1.925900   -0.771700
