20
gdb_11135
C     -0.141300    1.348000    0.590300
C     -0.113400   -0.128100    0.183800
C     -1.484200   -0.647900   -0.211100
C     -1.676700   -2.172000   -0.375900
C     -2.730300   -2.026600    0.739000
C     -2.496500   -2.742300    2.058000
O     -3.283000   -2.163900    3.079800
O     -2.437800   -0.611700    0.888300
H      0.847600    1.690900    0.907900
H     -0.464800    1.982300   -0.242300
H     -0.838800    1.501900    1.418600
H      0.566700   -0.279300   -0.665400
H      0.270500   -0.738600    1.010600
H     -1.875000   -0.064900   -1.057400
H     -2.046400   -2.507400   -1.345300
H     -0.803400   -2.767700   -0.096500
H     -3.770100   -2.168000    0.417400
H     -2.787600   -3.796200    1.978600
H     -1.422300   -2.706200    2.305400
H     -3.110400   -1.215000    3.035300
