13
gdb_13653
O      0.110400    1.382800   -0.029900
C      0.030500    0.003500    0.034200
C     -0.401300   -0.722000    1.264400
C     -1.322500   -0.724200    0.030100
C     -2.502000    0.067100    0.055800
C     -3.475900    0.788700    0.069500
C     -4.584600    1.582300    0.094500
N     -5.527200    2.262100    0.117400
H     -0.753500    1.764600    0.168200
H      0.803400   -0.452000   -0.576500
H      0.070700   -1.663700    1.521200
H     -0.730900   -0.125300    2.107400
H     -1.388400   -1.644800   -0.541000
