16
gdb_19376
O      0.141300    1.359000    0.194700
C      0.070400   -0.036000   -0.063400
C     -1.334500   -0.536000   -0.127000
N     -2.131300   -0.861900    1.088800
C     -1.920000   -1.886400    0.036400
C     -2.903500   -1.607600   -1.146800
N     -3.722500   -0.418200   -0.813300
C     -2.334000   -0.251100   -1.301400
H     -0.427300    1.542700    0.950400
H      0.572400   -0.181400   -1.027100
H      0.630500   -0.620500    0.686800
H     -1.454200   -1.078900    1.823500
H     -1.440700   -2.832700    0.252900
H     -3.213800   -2.329800   -1.890000
H     -4.328700   -0.255500   -1.618600
H     -2.098200    0.319600   -2.189900
