17
gdb_8162
C     -0.027700    1.545300    0.018700
C      0.050400    0.042000    0.009100
C      0.990000   -0.801400   -0.923200
C      0.608200   -1.921800    0.074900
C      0.643500   -0.832200    1.185200
N     -0.835800   -2.050700   -0.232400
C     -1.275200   -0.727100   -0.167400
O     -2.406000   -0.310000   -0.192400
H      0.952400    1.995300    0.204600
H     -0.401000    1.919600   -0.939900
H     -0.720500    1.889400    0.792800
H      0.695900   -0.940600   -1.965800
H      2.033800   -0.489100   -0.843900
H      1.130800   -2.874300    0.136600
H      1.651500   -0.517400    1.468100
H      0.024100   -0.990300    2.072600
H     -1.398800   -2.769600    0.200000
