19
gdb_9626
C      0.149700    1.483900    0.136500
C     -0.035900    0.042700   -0.351800
C     -1.369500   -0.570900    0.048000
C     -2.609900    0.049000   -0.568700
C     -1.417100   -2.035900    0.399700
N     -1.438400   -1.028900    1.436800
C     -2.482700   -0.857300    2.324700
O     -3.115000   -1.750800    2.834900
H      1.146300    1.853500   -0.121200
H     -0.579300    2.166700   -0.310700
H      0.042300    1.537100    1.224700
H      0.053900    0.000400   -1.444800
H      0.765800   -0.581500    0.056200
H     -2.559900   -0.019000   -1.660500
H     -3.516500   -0.464700   -0.236700
H     -2.706100    1.107500   -0.308200
H     -2.342300   -2.581500    0.230300
H     -0.511300   -2.633300    0.334200
H     -2.632100    0.210100    2.579100
