20
gdb_17528
C     -0.024900    1.557400    0.014000
C      0.092700    0.049300    0.075600
C      1.347300   -0.742000   -0.189800
C      2.603500   -0.048600    0.364900
C      1.943400   -0.051500    1.759900
C      2.631200   -0.407400    3.042500
C      2.038100    0.972900    2.855300
C      0.705900   -0.735500    1.209400
H      0.847100    2.056500    0.442100
H     -0.132500    1.898500   -1.021900
H     -0.904500    1.901300    0.569600
H     -0.782100   -0.461600   -0.325200
H      1.366400   -1.547200   -0.914600
H      3.488100   -0.690200    0.324500
H      2.857600    0.924300   -0.070200
H      2.128200   -1.090700    3.720300
H      3.712400   -0.505500    3.035200
H      2.722700    1.804600    2.720100
H      1.137700    1.222700    3.407500
H      0.168200   -1.530500    1.714900
