15
gdb_4503
C      0.021500    1.430200    0.079800
C     -0.002900   -0.048200   -0.056000
N      0.006700   -0.774000   -1.122500
C      0.008300   -2.096300   -0.665400
N      0.027100   -3.256000   -1.472700
C     -0.012600   -2.080600    0.692500
N     -0.114000   -3.071100    1.654400
O     -0.027400   -0.783900    1.107000
H      0.911300    1.767400    0.623400
H      0.027800    1.873600   -0.916400
H     -0.854400    1.795900    0.626600
H     -0.841000   -3.354200   -1.993100
H      0.767400   -3.194400   -2.166200
H      0.027000   -3.977500    1.223200
H      0.526200   -2.943600    2.430100
