11
gdb_23766
F     -0.009000    0.024000    0.004400
C     -0.060500    1.349000    0.011500
C     -1.232300    2.019000    0.030200
C     -1.215800    3.450200    0.037000
C     -0.022800    4.073900    0.024400
O      1.149400    3.410400    0.005800
C      1.236900    2.015700   -0.002200
O      2.317100    1.497900   -0.019000
H     -2.164800    1.465800    0.039700
H     -2.131800    4.024200    0.051800
H      0.123000    5.146600    0.027800
