17
gdb_1328
C     -0.061300    1.549800   -0.079200
C      0.009200    0.034200   -0.015700
C     -1.231900   -0.658100   -0.549100
C      1.325800   -0.643200   -0.206000
C      0.681500   -0.660700    1.179700
C      1.313600    0.093900    2.281700
O      1.263100   -0.230300    3.444000
H      0.867300    2.029500    0.238500
H     -0.259700    1.869100   -1.108700
H     -0.872000    1.935400    0.548800
H     -1.402500   -0.386600   -1.597500
H     -1.140800   -1.746900   -0.495100
H     -2.121400   -0.365500    0.019700
H      1.369100   -1.588200   -0.736400
H      2.208600   -0.022000   -0.325100
H      0.225700   -1.589500    1.506900
H      1.874200    1.005300    1.971100
