20
gdb_8543
C      0.061900    1.536500    0.019000
C     -0.019500    0.027100    0.001300
C      0.455800   -0.716200   -1.278800
C     -0.695800   -1.741600   -1.134700
C     -0.432900   -2.805000   -0.039800
C     -0.761200   -1.763900    1.058900
C      0.379100   -0.742300    1.292100
C     -1.354800   -0.816500   -0.047100
H      1.106600    1.871900    0.053400
H     -0.395100    1.973600   -0.876300
H     -0.447700    1.955600    0.894300
H      0.306900   -0.086300   -2.162400
H      1.482700   -1.099000   -1.295700
H     -1.190700   -2.070300   -2.049200
H     -1.197100   -3.588100   -0.070500
H      0.553400   -3.282200   -0.015100
H     -1.309600   -2.110700    1.935400
H      1.403400   -1.126000    1.362500
H      0.177300   -0.130300    2.177900
H     -2.363900   -0.409700   -0.073100
