11
gdb_21831
O     -0.328900    0.034400    0.007200
C     -0.068300    1.206700    0.008900
N      1.197300    1.765600   -0.002000
C      2.416500    1.115600   -0.015300
N      3.552200    1.810700   -0.016200
N      4.436000    0.817000   -0.031400
N      3.912300   -0.393100   -0.039100
N      2.612000   -0.227500   -0.029500
H     -0.831400    2.009600    0.019400
H      1.258500    2.772900    0.003300
H      5.432400    0.975300   -0.036400
