15
gdb_13228
C     -1.553100   -0.257600   -0.754700
C     -0.629100    0.363700   -0.303900
C      0.502300    1.105500    0.249200
N      0.700300    2.380600   -0.451000
C      1.770900    2.549500   -1.075800
C      2.357700    3.671000   -1.905500
C      3.552400    2.707100   -2.056100
O      2.865700    1.713900   -1.233900
H     -2.371700   -0.804400   -1.152100
H      0.294100    1.335500    1.302000
H      1.396900    0.468600    0.230500
H      1.805700    3.898800   -2.818500
H      2.551200    4.593700   -1.356400
H      3.738900    2.318600   -3.059900
H      4.489700    3.018200   -1.589100
