17
gdb_12357
C     -0.133200    1.529800   -0.012100
C      0.050000    0.013800    0.018100
C      0.753200   -0.507000   -1.240000
N      0.953700   -1.949200   -1.153100
C      1.435600   -2.448200    0.019900
C      1.420500   -1.763200    1.191100
C      0.789100   -0.455700    1.291400
O      0.765500    0.208800    2.313900
H      0.826700    2.036800   -0.160800
H     -0.807800    1.832100   -0.819400
H     -0.539200    1.871800    0.940900
H     -0.938900   -0.468600    0.068700
H      0.162000   -0.284500   -2.133200
H      1.725300    0.005400   -1.344100
H      1.233900   -2.420900   -1.997700
H      1.827900   -3.459900   -0.036400
H      1.821000   -2.207300    2.093100
