18
gdb_18402
C     -0.073900    1.487100    0.089400
C      1.286500    0.817900    0.029900
C      2.187000    0.756300    1.254600
C      2.640300   -0.669600    1.593000
O      1.628700   -1.437900    2.231600
C      0.539500   -1.800800    1.435900
O     -0.337000   -0.734700    1.140700
C      0.022000   -0.004300    0.001000
H     -0.379100    1.889200    1.049300
H     -0.434900    2.037400   -0.772300
H      1.814900    0.886500   -0.917500
H      3.071700    1.382900    1.088300
H      1.675500    1.158700    2.134800
H      2.990800   -1.186100    0.683800
H      3.471000   -0.644000    2.305300
H      0.884300   -2.271800    0.498500
H     -0.036700   -2.514700    2.029300
H     -0.257900   -0.486100   -0.935800
