20
gdb_13413
C     -0.171600    1.370700   -0.266400
O     -0.050600   -0.011800   -0.034500
C     -1.294300   -0.677800   -0.001500
C     -1.046300   -2.169900    0.193500
C     -2.380700   -2.963200    0.254000
C     -2.354800   -3.821300   -1.033100
O     -1.394400   -3.218000   -1.885600
C     -0.344200   -2.786300   -1.033300
H      0.836800    1.791500   -0.277000
H     -0.655900    1.582600   -1.232900
H     -0.755500    1.868700    0.524100
H     -1.920300   -0.282500    0.817200
H     -1.846100   -0.515700   -0.944100
H     -0.447000   -2.302700    1.098300
H     -2.454700   -3.581700    1.151300
H     -3.238400   -2.283000    0.257000
H     -2.061200   -4.857600   -0.798200
H     -3.308800   -3.849600   -1.565800
H      0.271700   -2.067700   -1.577400
H      0.287300   -3.638900   -0.733500
