17
gdb_13196
C      0.070100    1.484800    0.203400
N      0.139200    0.044000    0.053200
C      0.209500   -0.566400   -1.164300
O      0.220000    0.045000   -2.220000
C      0.275400   -2.081700   -1.127700
C     -0.689300   -2.822000   -2.088200
O      0.396400   -3.521600   -2.724100
C      1.367800   -2.730700   -2.014600
H      0.087200    1.914800   -0.798600
H     -0.853100    1.789300    0.708900
H      0.924000    1.867800    0.773000
H      0.135100   -0.529500    0.879800
H      0.256700   -2.479900   -0.110500
H     -1.407200   -3.506800   -1.623300
H     -1.205300   -2.147800   -2.781200
H      1.870300   -2.011400   -2.671200
H      2.108500   -3.350800   -1.497500
