14
gdb_17203
O      0.113000    1.434700   -0.073300
C      0.095600    0.050900   -0.079300
C      0.040400   -0.681300    1.301600
O     -1.349200   -0.146900    1.447000
C     -1.292600   -0.659000    0.042600
C     -0.558200   -1.888000    0.578700
C     -0.109000   -3.179600    0.080200
O     -1.099200   -3.044200    1.131000
H     -0.526200    1.692100    0.608200
H      0.799000   -0.314100   -0.830500
H      0.699000   -0.617300    2.166400
H     -2.192200   -0.569000   -0.564200
H     -0.490000   -3.564100   -0.864100
H      0.848500   -3.586500    0.400100
