16
gdb_20210
C     -0.010200    1.554700    0.012900
O      1.349500    1.985400   -0.082500
C      2.086300    0.966400   -0.702300
C      2.387600   -0.283200    0.110600
O      1.909200   -0.335400    1.427300
C      0.495800   -0.543700    1.377900
C      0.033100    0.016800    0.021800
C      1.252400   -0.276700   -0.881400
H     -0.436900    1.984500    0.924400
H     -0.584400    1.921200   -0.851600
H      2.794900    1.316500   -1.446000
H      3.312100   -0.828300   -0.050800
H      0.269200   -1.618300    1.450700
H      0.049400   -0.032700    2.236500
H     -0.897400   -0.434700   -0.327400
H      1.187500   -0.876700   -1.779600
