16
gdb_4105
C      0.001500    1.522700   -0.005400
C     -0.019100   -0.007100    0.057800
N      0.677500   -0.631700   -1.087800
C      1.841500   -1.214200   -0.621700
C      1.926800   -1.246500    0.727700
C      0.764000   -0.556000    1.250500
N      0.339500   -0.362500    2.443900
O      1.216000   -0.947900    3.385800
H      1.030600    1.892900   -0.048900
H     -0.543700    1.890300   -0.881800
H     -0.471000    1.927800    0.893200
H     -1.056700   -0.356100    0.088700
H      0.726100   -0.094300   -1.941700
H      2.546200   -1.618700   -1.338200
H      2.688000   -1.723900    1.320600
H      0.773300   -0.750600    4.217300
