15
gdb_12044
O     -0.106200    1.417200   -0.084300
C     -0.038500    0.013200    0.014100
C      0.238800   -0.628000    1.434400
C     -1.138200   -1.293900    1.369500
C     -2.198100   -0.246300    1.215400
C     -1.413100   -0.661000    0.001400
C      0.865500   -0.533500   -1.010000
N      1.600500   -0.937100   -1.805900
H      0.789100    1.774200   -0.056900
H      1.078100   -1.324400    1.418600
H      0.384200    0.107400    2.231400
H     -1.354400   -2.303700    1.691000
H     -3.221300   -0.606600    1.223300
H     -2.063900    0.744300    1.639000
H     -1.875700   -1.078500   -0.882900
