15
gdb_3587
C     -0.082300    1.443900    0.118800
C      1.297500    0.844700    0.046000
C      2.053500    0.506500    1.336600
C      1.210300   -0.540600    2.053000
O     -0.103000   -0.101800    2.429300
C      0.038200   -0.870500    1.223900
C      0.070200   -0.050200   -0.045900
H     -0.447600    1.799600    1.074100
H     -0.420300    2.005400   -0.745600
H      1.888800    1.056700   -0.838000
H      3.029300    0.069300    1.094800
H      2.236900    1.381100    1.970500
H      1.676200   -1.236500    2.747800
H     -0.449300   -1.841300    1.234900
H     -0.228900   -0.529900   -0.970000
