16
gdb_7923
C     -0.178200    1.548300    0.035500
C      0.070000    0.040100   -0.003600
C      0.909200   -0.466300   -1.195700
C      1.900100   -1.466400   -0.607200
O      2.662200   -2.199400   -1.185600
N      1.786800   -1.363100    0.773600
C      0.820300   -0.467600    1.227400
N      0.553200   -0.114200    2.415700
H      0.767300    2.100200    0.007000
H     -0.782600    1.863300   -0.820400
H     -0.698800    1.820200    0.955800
H     -0.898800   -0.474100   -0.001100
H      0.326600   -0.940300   -1.987900
H      1.485900    0.341400   -1.660800
H      2.389000   -1.896800    1.383800
H      1.155400   -0.573400    3.100900
