13
gdb_2655
C     -0.001400    1.469500    0.034300
C     -0.003200    0.018300   -0.000500
C     -0.007200   -1.191600   -0.028500
C     -0.012300   -2.550900   -0.059700
C     -0.020900   -3.760600   -0.085400
C      0.006700   -5.214200   -0.134300
O     -1.193000   -5.738500    0.420800
H      0.788700    1.850700    0.691100
H      0.161800    1.890600   -0.964300
H     -0.957700    1.855200    0.405500
H      0.135400   -5.532900   -1.182300
H      0.892500   -5.572300    0.416600
H     -1.135800   -6.698300    0.370100
