15
gdb_11880
O      0.030200   -0.033600    0.060700
C     -0.026100    1.174500    0.084600
C     -1.287500    2.046900    0.099500
C     -0.772800    3.454300    0.341100
C     -1.583300    4.671200    0.310000
O     -1.166700    4.098900    1.554600
C      0.729100    3.444200    0.037000
N      1.045500    2.029800    0.086700
H     -1.792600    1.943900   -0.866900
H     -1.979200    1.724800    0.879900
H     -1.121600    5.625600    0.056500
H     -2.649200    4.603800    0.095000
H      0.946500    3.879200   -0.949100
H      1.266900    4.021000    0.796400
H      1.980900    1.665900   -0.001300
