17
gdb_17469
C     -0.003300    1.550000    0.038600
C     -0.055100    0.049600    0.131500
C     -1.335300   -0.715900   -0.206000
N     -1.345600   -1.983600    0.558000
C     -0.310100   -2.966400    0.216600
C     -0.099700   -2.038300    1.358500
C      0.699700   -0.790500    1.080800
O      1.130000   -0.656800   -0.283100
H      0.977800    1.916800    0.349600
H     -0.177400    1.881700   -0.991000
H     -0.769600    2.007400    0.672800
H     -2.206900   -0.128000    0.104500
H     -1.425700   -0.906300   -1.280800
H     -0.596900   -3.997600    0.404800
H      0.301500   -2.799600   -0.664200
H     -0.182000   -2.368100    2.390400
H      1.376900   -0.391200    1.831100
