12
gdb_21667
N     -0.064200    1.372400    0.143600
C      0.020200    0.001400    0.038000
N     -1.069000   -0.769000    0.027100
N     -0.550500   -2.005100   -0.012900
N      0.748700   -2.114600   -0.038100
C      1.172200   -0.835700   -0.002900
C      2.581900   -0.453800    0.001000
O      3.521600   -1.212000   -0.048600
H      0.669800    1.891800   -0.312900
H     -0.983000    1.737100   -0.064700
H     -1.149100   -2.816100   -0.025100
H      2.740100    0.648300    0.060300
