18
gdb_18733
O     -0.047400    1.429200    0.039600
C     -0.008400    0.005100    0.027400
C      0.784600   -0.536700    1.227600
O      0.673400   -1.941300    1.315700
C     -0.630900   -2.341500    1.711200
C     -1.750700   -1.723400    0.875100
C     -2.305200   -0.366700    1.234300
C     -1.426800   -0.513700    0.021000
H      0.845900    1.752000   -0.119900
H      0.485900   -0.357300   -0.887200
H      1.849800   -0.310100    1.107900
H      0.440300   -0.043800    2.152200
H     -0.644800   -3.429900    1.609600
H     -0.776000   -2.104100    2.778500
H     -2.449100   -2.438300    0.452600
H     -3.360900   -0.178600    1.074500
H     -1.894700    0.131800    2.106600
H     -1.920800   -0.446400   -0.943100
