17
gdb_7292
C     -0.072100    1.663700    0.203400
C     -0.060400    0.137100    0.013400
C      0.779500   -0.575000    1.099900
C      2.179600   -0.172900    1.098900
C      3.334100    0.162900    1.076900
C     -1.498100   -0.386300    0.085100
N     -2.107200   -0.579100   -1.120000
O     -2.063700   -0.593000    1.142500
H      0.948800    2.053500    0.201900
H     -0.633300    2.157300   -0.595800
H     -0.542600    1.920700    1.157300
H      0.370100   -0.096000   -0.967800
H      0.318100   -0.374000    2.072800
H      0.712700   -1.660300    0.955500
H      4.355800    0.451600    1.074900
H     -1.649700   -0.385900   -1.992900
H     -3.075200   -0.856900   -1.128400
