20
gdb_14124
C      0.180300    1.585100   -0.075300
C      0.023300    0.055900   -0.011800
C      0.506300   -0.602200   -1.311000
C      0.699500   -0.496500    1.221000
C      2.163200   -0.888700    1.347400
C      1.092000   -1.885700    1.673900
O      0.607700   -1.688900    3.003800
C      0.139000   -0.362400    2.640300
H      1.235700    1.862200   -0.173800
H     -0.359800    1.999700   -0.932800
H     -0.208100    2.066200    0.828500
H     -1.049400   -0.165200    0.089300
H      1.554300   -0.359700   -1.517600
H      0.411400   -1.692200   -1.269100
H     -0.084800   -0.247000   -2.160700
H      2.679300   -1.052100    0.406700
H      2.782400   -0.493200    2.148800
H      0.987800   -2.871700    1.234600
H      0.554400    0.418800    3.288500
H     -0.957100   -0.322200    2.669200
