16
gdb_14654
C      0.022400    1.385300   -0.044100
N      0.036000   -0.056100   -0.182400
C     -1.047100   -0.666300   -0.011600
O     -1.098000   -2.014800   -0.127500
C     -2.371100   -2.607700    0.085000
C     -2.173000   -4.115600   -0.098800
C     -3.418800   -4.851000    0.094700
N     -4.414700   -5.414700    0.251600
H      0.728800    1.683900    0.738200
H      0.367700    1.845000   -0.976800
H     -0.966800    1.803600    0.203400
H     -2.010800   -0.194300    0.235800
H     -2.740200   -2.393300    1.095900
H     -3.105500   -2.230000   -0.637500
H     -1.784300   -4.311900   -1.103200
H     -1.422400   -4.473500    0.613300
