15
gdb_10469
O      0.646100    0.030000   -0.759800
C      0.199000    0.972200   -0.152200
C      1.039000    2.199200    0.166800
C      1.215900    3.055900   -1.082000
C      2.593400    3.452800   -1.526400
N      1.838100    2.478000   -2.296400
C      0.083700    3.973900   -1.406800
O     -0.883900    4.127300   -0.703600
H     -0.859700    0.993300    0.178400
H      0.565500    2.798400    0.948400
H      2.015200    1.848600    0.514400
H      2.752500    4.407600   -2.021100
H      3.412400    3.127000   -0.890200
H      2.118100    1.520900   -2.088800
H      0.205200    4.505700   -2.374600
