14
gdb_8604
C     -0.019000    1.536100    0.010400
C      0.002200   -0.024400    0.002000
C      0.716500   -0.508500    1.198700
C      1.303000   -0.867400    2.182400
C     -1.383600   -0.530500    0.012400
C     -2.523000   -0.907300    0.021300
C      0.693700   -0.495500   -1.213300
C      1.261300   -0.843700   -2.211700
H      1.005300    1.913500    0.002000
H     -0.547600    1.897100   -0.873800
H     -0.529500    1.887700    0.909000
H      1.819600   -1.201600    3.048100
H     -3.525900   -1.256800    0.029000
H      1.761200   -1.168300   -3.090800
