14
gdb_4437
C      0.108900    1.556500    0.058300
C      0.001800    0.075200    0.015100
C     -1.076200   -0.722900    0.039300
N     -2.430000   -0.414700    0.112400
O     -0.665300   -2.062600   -0.023500
C      0.710700   -2.097300   -0.088500
O      1.373400   -3.097500   -0.152300
N      1.109200   -0.778600   -0.064400
H      0.684600    1.895000    0.928100
H      0.602700    1.952400   -0.837200
H     -0.892800    1.985300    0.118700
H     -2.944500   -0.753500   -0.695600
H     -2.868100   -0.806300    0.941300
H      2.077300   -0.512300   -0.100900
