19
gdb_13707
C      0.022700    1.437100    0.070300
O     -0.275500    0.056400   -0.084200
C      0.391800   -0.574200   -1.073400
N      0.209400   -1.801200   -1.286000
C      0.931900   -2.416500   -2.341800
C      1.390900   -3.845800   -2.132500
C      0.273000   -3.555700   -3.099500
C     -1.146400   -3.979100   -2.797500
H      1.079000    1.595900    0.321000
H     -0.221800    2.006700   -0.835100
H     -0.596100    1.795500    0.893700
H      1.079400    0.068600   -1.644700
H      1.596900   -1.771400   -2.921900
H      2.364900   -4.133100   -2.513600
H      1.122700   -4.292600   -1.181400
H      0.544400   -3.602100   -4.151500
H     -1.376600   -3.840600   -1.739100
H     -1.866200   -3.386400   -3.373200
H     -1.301100   -5.033400   -3.052600
