14
gdb_10574
C     -0.066800    1.535500   -0.069500
C     -0.029300    0.038100    0.062400
O      1.216100   -0.615000   -0.141300
C      0.653000   -0.667500    1.191100
C      1.355000    0.084600    2.204500
C      1.926800    0.698000    3.064800
C      0.161400   -1.959800    1.610000
C     -0.258700   -3.028500    1.962600
H      0.766600    1.998600    0.461800
H     -0.009200    1.815400   -1.126500
H     -1.006500    1.926800    0.333300
H     -0.878600   -0.498300   -0.364100
H      2.439300    1.236400    3.823700
H     -0.622700   -3.976200    2.274900
