16
gdb_3562
C      0.022900    1.474000   -0.049200
C      1.295900    0.719100    0.074500
C      1.836600    0.321700    1.455500
C      1.435300   -1.199500    1.428000
C      0.008900   -0.569300    1.432600
C      0.610600    0.495200    2.391500
N     -0.014500    0.003500    0.045000
H     -0.344500    2.092500    0.761400
H     -0.256400    1.837300   -1.034900
H      1.946300    0.596500   -0.787800
H      2.834700    0.662500    1.728900
H      1.707000   -1.781400    0.544400
H      1.686800   -1.734000    2.346500
H     -0.893600   -1.133400    1.664600
H      0.799300    0.071100    3.378900
H      0.141600    1.472400    2.508800
