16
gdb_651
C     -0.145800    1.579200    0.002500
C      0.032900    0.068900    0.030100
C      1.183700   -0.648100   -0.752600
C      2.178200   -0.157200    0.340400
C      0.914800   -0.645800    1.108300
C      0.921400   -1.880200    0.161000
H      0.787800    2.131700    0.135000
H     -0.582900    1.894800   -0.951600
H     -0.832500    1.897300    0.795000
H     -0.941300   -0.415800   -0.110000
H      1.340900   -0.653000   -1.833000
H      3.082300   -0.758500    0.471800
H      2.417600    0.906600    0.373700
H      0.759700   -0.647900    2.189100
H     -0.030800   -2.401000    0.024000
H      1.750100   -2.583000    0.281600
