11
gdb_21827
O     -0.242200    0.032100    0.000400
C     -0.069000    1.230100    0.007700
N      1.163300    1.825500    0.001000
C      2.355400    1.117500   -0.015300
C      2.631300   -0.215300   -0.027800
O      3.964300   -0.342000   -0.042100
N      4.509500    0.951800   -0.036700
N      3.555100    1.782400   -0.021100
H     -0.886000    1.972500    0.021200
H      1.238100    2.831800    0.008000
H      2.022600   -1.099600   -0.028900
