14
gdb_4995
C     -0.028700    1.523700   -0.003400
C     -0.056100    0.023900    0.002300
C     -1.178800   -0.724900   -0.151300
C     -1.126900   -2.153900   -0.135000
C      0.072900   -2.740200    0.037600
O      1.208700   -2.040600    0.193200
C      1.232200   -0.637500    0.188500
O      2.297800   -0.099300    0.336600
H      0.626600    1.897400   -0.797400
H     -1.030600    1.935000   -0.148300
H      0.381100    1.908500    0.936500
H     -2.136800   -0.231400   -0.289600
H     -2.015800   -2.757800   -0.256300
H      0.249200   -3.808800    0.069100
