14
gdb_21267
C     -0.067400    1.429100    0.028600
O     -0.004400    0.017400    0.049100
C      0.610200   -0.543600   -1.019800
C      1.192500    0.021700   -2.138600
N      1.656600   -1.016600   -2.886300
N      1.412800   -2.223300   -2.324200
C      0.781300   -1.939900   -1.197700
O      0.360400   -2.889800   -0.336600
H      0.938000    1.873300    0.012200
H     -0.628200    1.791100   -0.844800
H     -0.582400    1.735000    0.940500
H      1.307600    1.046700   -2.447900
H      2.136200   -0.976600   -3.766400
H      0.612500   -3.741400   -0.715100
