20
gdb_17383
C     -0.152600    1.342400    0.137400
C      1.171000    0.725300   -0.216100
C      1.874000    0.234700    1.054800
C      0.648200   -0.677400    1.368300
C      0.815600   -2.216300    1.478000
C     -0.345500   -2.234600    2.508300
C     -0.139700   -0.707800    2.705300
C     -0.038000   -0.157000    0.096400
H     -0.281500    1.859700    1.086300
H     -0.697900    1.789100   -0.688100
H      1.649600    0.908800   -1.170400
H      2.771800   -0.357300    0.855500
H      2.120900    1.005000    1.795000
H      0.699800   -2.799400    0.559700
H      1.772800   -2.481200    1.939300
H     -1.306300   -2.458500    2.036600
H     -0.232600   -2.878100    3.383700
H      0.510000   -0.493300    3.560300
H     -1.028600   -0.074600    2.775300
H     -0.640200   -0.757900   -0.576500
