15
gdb_7762
O      0.082000    1.448600    0.107900
C      0.095500    0.028200    0.042000
C     -1.331300   -0.547900    0.103400
C     -1.454500   -2.026200   -0.249900
O     -2.298600   -2.766000    0.207500
N     -0.561900   -2.450200   -1.215300
C      0.484100   -1.667800   -1.711800
C      0.817800   -0.493100   -1.173600
H     -0.308000    1.771800   -0.712600
H      0.644000   -0.270700    0.946700
H     -1.791200   -0.386200    1.078800
H     -1.944700   -0.013500   -0.637700
H     -0.677000   -3.402200   -1.527900
H      1.010500   -2.102100   -2.553800
H      1.649900    0.079100   -1.564800
