16
gdb_20952
C     -0.062600    1.535200    0.011100
C     -0.001600    0.018900    0.002900
O     -1.337000   -0.473900    0.010600
C     -1.468200   -1.822700    0.004700
C     -2.680600   -2.487700    0.010600
N     -2.369100   -3.810700    0.001500
N     -1.053100   -4.054400   -0.009900
C     -0.488600   -2.844400   -0.008000
H      0.948500    1.952700    0.005300
H     -0.595900    1.903700   -0.869600
H     -0.582100    1.894700    0.903600
H      0.524200   -0.348500   -0.890600
H      0.537900   -0.357600    0.884400
H     -3.693900   -2.123100    0.020200
H     -3.008100   -4.586600    0.002400
H      0.586200   -2.755400   -0.015800
