19
gdb_1816
C      0.114400    1.480200    0.019200
C      0.000400   -0.047200    0.046600
C      0.575400   -0.597300    1.360300
O     -1.409500   -0.315800    0.000900
C      0.639200   -0.632100   -1.210400
C      2.089800   -1.017600   -1.327200
C      1.025200   -2.087800   -1.344400
H      1.162000    1.791300    0.059600
H     -0.333000    1.876800   -0.896600
H     -0.415000    1.914900    0.871900
H      0.023300   -0.162200    2.197300
H      0.468300   -1.685100    1.424000
H      1.634200   -0.350800    1.484100
H     -1.510800   -1.262700   -0.145100
H      0.204100   -0.196400   -2.106300
H      2.607700   -0.785000   -2.251200
H      2.715400   -0.952800   -0.444100
H      0.955700   -2.732800   -0.475000
H      0.807500   -2.588600   -2.281400
