17
gdb_4457
C     -0.113600    1.504200    0.117100
C     -0.014100    0.023200   -0.035300
C      0.023600   -0.794000   -1.141500
C     -0.029000   -0.378800   -2.580900
C      0.124800   -2.152400   -0.678400
C      0.144200   -2.102200    0.690800
O      0.225600   -3.047800    1.663900
N      0.061300   -0.799800    1.084600
H      0.751600    1.929200    0.643700
H     -0.163000    1.983600   -0.862800
H     -1.011000    1.807700    0.673000
H      0.866600   -0.698200   -3.127800
H     -0.890300   -0.819100   -3.098500
H     -0.105500    0.706800   -2.688400
H      0.175700   -3.041700   -1.288600
H      0.277900   -3.908900    1.239000
H      0.056700   -0.499700    2.043800
