19
gdb_11537
C     -0.538300    1.176200   -0.389300
C     -0.127200   -0.232500   -0.809900
C      1.368600   -0.382400   -1.053100
O      2.137400    0.541200   -0.916500
C      1.867700   -1.761400   -1.496800
C      1.426100   -2.111600   -2.906400
C      1.329200   -3.525200   -3.342800
N      0.107600   -2.715100   -3.170400
H     -0.028700    1.473700    0.530700
H     -0.269900    1.905200   -1.157900
H     -1.617500    1.230500   -0.222200
H     -0.416600   -0.972900   -0.050100
H     -0.649200   -0.543800   -1.724700
H      2.960300   -1.739800   -1.439700
H      1.501300   -2.530300   -0.803300
H      1.707700   -1.372900   -3.654800
H      1.558500   -3.798000   -4.368700
H      1.547600   -4.297700   -2.609500
H     -0.338300   -2.966100   -2.290600
