20
gdb_20039
C     -0.136500    1.445200   -0.148800
C      1.276500    0.980500    0.050900
C      0.143000   -0.031500    0.068500
C     -0.265500   -0.724800    1.305400
C     -0.646600   -2.004000    1.393600
C     -1.055800   -2.401300    2.790100
C     -0.532200   -1.221900    3.647400
C     -0.368500   -0.041500    2.658700
H     -0.608200    1.993900    0.658500
H     -0.447600    1.757900   -1.139400
H      1.944400    0.964900   -0.803200
H      1.763500    1.217000    0.990100
H      0.071800   -0.649900   -0.821700
H     -0.703400   -2.685200    0.550500
H     -2.148700   -2.505200    2.863900
H     -0.637900   -3.364500    3.105500
H     -1.185600   -0.981200    4.490000
H      0.446900   -1.483200    4.061800
H      0.499400    0.583100    2.899300
H     -1.241400    0.626800    2.678900
