17
gdb_6458
C     -0.386900    1.715100   -0.182500
C     -0.068800    0.234100   -0.159900
C     -1.271100   -0.643100    0.175700
O     -1.778800   -0.352600    1.461500
C      0.866000   -0.312300   -1.264200
C      1.825100   -0.571000   -0.123700
N      2.973300   -1.064700   -0.031300
O      0.989100   -0.056800    0.848000
H      0.525500    2.307500   -0.289900
H     -1.050200    1.942300   -1.024000
H     -0.894700    2.004500    0.740500
H     -2.081300   -0.455300   -0.537500
H     -0.981400   -1.701600    0.085500
H     -1.049300   -0.487000    2.078600
H      0.521700   -1.206200   -1.788500
H      1.214200    0.424700   -1.989900
H      3.299100   -1.067800    0.936900
