15
gdb_4507
C      0.020800    1.416100    0.067800
C      0.023200   -0.064700   -0.051000
N     -0.014600   -0.783700   -1.134000
C      0.009000   -2.086600   -0.678000
O     -0.018600   -3.134200   -1.529900
C      0.060800   -2.119700    0.677000
C      0.104700   -3.187800    1.701900
O      0.070000   -0.793600    1.083200
H      0.922100    1.772900    0.577300
H     -0.019600    1.853100   -0.930300
H     -0.842200    1.764500    0.645000
H     -0.053900   -2.763100   -2.419300
H      1.012800   -3.134400    2.314300
H     -0.754700   -3.142400    2.381600
H      0.090000   -4.158900    1.201300
