14
gdb_3382
O     -0.447200    0.399900    0.580000
C      0.089200    1.141000   -0.211500
C      1.282700    1.995500    0.026800
C      1.476800    2.849400    1.243800
C      0.948700    2.206900    2.523700
C      1.890400    1.023400    2.188700
N      2.418800    1.723000    0.953000
H     -0.315200    1.249800   -1.243500
H      1.658700    2.445400   -0.889200
H      1.764700    3.889500    1.120300
H      1.245600    2.757300    3.418200
H     -0.121000    1.996500    2.562000
H      2.720800    0.911900    2.888300
H      1.428700    0.056800    1.996700
