18
gdb_10539
C     -0.099800    1.582500    0.122000
C     -0.166900    0.055500    0.197400
C      0.952600   -0.542600    1.059000
C      0.880600   -2.056800    1.158100
C      1.185000   -2.739100    2.433600
O     -0.164000   -2.560400    2.017700
C      1.064700   -2.788200   -0.076000
C      1.234500   -3.367600   -1.115500
H      0.848700    1.918300   -0.312200
H     -0.908700    1.983800   -0.496000
H     -0.185900    2.034500    1.116500
H     -1.132400   -0.257000    0.612000
H     -0.109700   -0.370200   -0.811100
H      1.931900   -0.262900    0.650200
H      0.897600   -0.135300    2.075100
H      1.550500   -3.764200    2.416900
H      1.501100   -2.138700    3.286200
H      1.376900   -3.889500   -2.029500
