18
gdb_12382
C     -0.074100    1.540500   -0.007900
C      0.064700    0.020900    0.026800
C      0.785600   -0.536700   -1.224800
O      0.927000   -1.941900   -1.183400
C      1.731400   -2.361600   -0.099700
C      1.100000   -1.968800    1.250100
C      0.798400   -0.478000    1.269200
O      1.137500    0.250600    2.173200
H      0.907600    2.022700   -0.041500
H     -0.646100    1.860000   -0.884500
H     -0.580000    1.902700    0.889500
H     -0.928700   -0.450800    0.042000
H      0.209000   -0.306800   -2.125200
H      1.772700   -0.052600   -1.322500
H      1.828800   -3.447200   -0.182800
H      2.740100   -1.923000   -0.179300
H      0.157200   -2.518400    1.363000
H      1.753900   -2.217800    2.089600
