18
gdb_6869
C     -0.106200    1.556200   -0.049200
C     -0.016200    0.046000   -0.031500
C     -1.234900   -0.677700   -0.569300
C      1.325400   -0.602100   -0.248000
O      2.456600    0.179100   -0.453900
C      0.696200   -0.648200    1.146900
C      1.345900    0.095700    2.180200
C      1.962100    0.714500    3.011100
H      0.826000    2.019200    0.275200
H     -0.318900    1.906000   -1.065500
H     -0.912500    1.906800    0.603900
H     -1.437600   -0.375100   -1.603000
H     -1.097900   -1.764100   -0.560700
H     -2.125200   -0.449000    0.027500
H      1.349800   -1.542300   -0.797100
H      2.891500    0.311800    0.398500
H      0.278400   -1.600900    1.459700
H      2.462000    1.265200    3.769100
