17
gdb_7790
C     -0.008600    1.504700    0.088200
C     -0.006300   -0.002700   -0.099800
C      0.857800   -0.493800   -1.250900
C      0.864400   -2.010700   -1.206500
O      1.256300   -2.491300    0.084100
C      0.877300   -1.845200    1.222500
N      0.969000   -2.375700    2.364600
O      0.471500   -0.561100    1.137200
H      1.010600    1.873800    0.235900
H     -0.436300    1.994400   -0.791700
H     -0.603100    1.776300    0.963800
H     -1.038300   -0.355200   -0.251100
H      0.455900   -0.146300   -2.208000
H      1.875700   -0.102900   -1.143300
H     -0.133000   -2.406200   -1.445500
H      1.578800   -2.446600   -1.908800
H      1.335200   -3.320500    2.267400
