12
gdb_3041
O     -0.117900    0.030800    0.405100
C      0.000000    1.178000    0.037600
C      1.242100    1.901000    0.005200
C      2.272600    2.534500   -0.039400
C      3.494800    3.273800   -0.061200
C      3.793300    4.153800   -1.239600
N      3.466400    4.755400    0.047600
H     -0.873200    1.767000   -0.310700
H      4.330500    2.818200    0.462000
H      4.828600    4.258600   -1.549900
H      3.062100    4.180300   -2.041800
H      2.498800    5.069900    0.050100
