13
gdb_19640
O     -0.157700    0.032800   -0.110000
C      0.009600    1.216600    0.082400
C      1.291900    1.893200    0.011400
C      1.838600    3.018600    0.954000
C      3.267200    2.536300    0.606000
C      2.742100    1.488800   -0.307400
N      3.059300    2.861600   -0.850200
C      1.642700    3.297900   -0.490500
H     -0.840200    1.894200    0.332700
H      1.364400    3.413900    1.840900
H      4.223300    2.653500    1.099700
H      3.184300    0.585100   -0.704900
H      1.043800    4.012400   -1.040500
