17
gdb_6037
C      0.300900    1.684500   -0.453700
C     -0.196400    0.358500    0.121600
O      0.282300    0.225100    1.459500
C     -1.733900    0.273300    0.125000
N     -2.134600   -0.850200    0.984000
H     -2.110800   -1.722000    0.463300
H     -0.407400   -0.314700    1.894100
H     -3.083100   -0.731500    1.319500
C      0.376300   -0.798000   -0.738800
O      1.376600   -1.461500   -0.145400
O     -0.026900   -1.064800   -1.841100
H      1.392900    1.730700   -0.419200
H     -0.017500    1.787500   -1.493800
H     -0.096700    2.516700    0.133600
H      1.450500   -1.062700    0.744700
H     -2.127800    1.194400    0.565400
H     -2.087500    0.199700   -0.909200
