16
gdb_7406
C     -0.015300    1.407100    0.123500
C      0.088400   -0.095700    0.038200
O      0.280400   -0.797700    1.005000
C     -0.074300   -0.784100   -1.331200
O      0.197700   -2.142900   -1.215400
C     -1.530600   -0.551300   -1.837900
C     -1.719800    0.495000   -2.917200
O     -2.434400   -1.206500   -1.387500
H      0.612000    1.889600   -0.632800
H     -1.050000    1.717900   -0.063100
H      0.277500    1.739600    1.119900
H      0.625800   -0.316700   -2.040100
H      0.205000   -2.322400   -0.260500
H     -1.199500    1.426700   -2.670600
H     -1.276300    0.125600   -3.850100
H     -2.782000    0.686100   -3.073600
