17
gdb_15617
C     -0.068400    1.465200    0.045200
N     -0.109000    0.011800    0.046800
C      0.619600   -0.635100    0.838500
O      1.514600   -0.116700    1.739100
C      2.008400   -1.191800    2.532300
O      1.790500   -2.373900    1.813100
C      0.657800   -2.148100    0.968900
C     -0.634900   -2.728000    1.540700
H      0.511700    1.900400    0.866800
H      0.356700    1.812500   -0.903800
H     -1.093300    1.848500    0.091800
H      3.082000   -1.055800    2.692200
H      1.477100   -1.190400    3.497800
H      0.877200   -2.603800   -0.000800
H     -0.865300   -2.294800    2.519000
H     -1.462700   -2.503400    0.862900
H     -0.545500   -3.811700    1.651900
