11
gdb_2561
N      0.047100   -1.128700    0.015900
C      0.004900    0.026200    0.003600
C     -0.016800    1.468500    0.010600
C      0.505900    2.186000    1.265500
C      1.332800    2.204200    0.029000
C     -1.106200    2.081900   -0.708500
N     -1.967800    2.600900   -1.277800
H     -0.031400    3.082600    1.548600
H      0.801900    1.540500    2.083100
H      2.210200    1.571500   -0.022800
H      1.376800    3.113600   -0.557400
