14
gdb_13045
N      0.465800    1.265500    0.197700
C      0.206700    0.042200    0.119700
O      0.975000   -1.076300    0.327900
C     -0.197600   -1.955700    0.218200
C     -1.067600   -0.732600   -0.153000
N     -2.174900   -0.369600    0.692500
C     -3.350900   -1.049100    0.629300
O     -3.518500   -2.041800   -0.047200
H      1.439600    1.433800    0.455100
H     -0.055500   -2.708900   -0.557200
H     -0.431600   -2.414300    1.180300
H     -1.364200   -0.741800   -1.206000
H     -2.109800    0.496500    1.205500
H     -4.133400   -0.604100    1.273100
