15
gdb_14079
C     -0.053300    1.505400   -0.116600
C     -0.005000    0.007500    0.021400
O      1.287400   -0.619000   -0.080800
C      0.632000   -0.658000    1.161400
C      1.172700   -0.143700    2.495500
O      0.678800   -1.367500    3.129200
C      0.237800   -1.893000    1.923400
N     -0.295100   -2.989000    1.641600
H      0.764200    1.978500    0.433800
H      0.030700    1.793900   -1.169000
H     -1.004800    1.892100    0.263200
H     -0.792900   -0.550800   -0.484800
H      2.261200   -0.074000    2.559900
H      0.696900    0.742500    2.922600
H     -0.402000   -3.583900    2.464600
