20
gdb_14728
C     -0.031600    1.560100    0.275900
C     -0.028000    0.054300   -0.000300
C     -1.430900   -0.559600    0.015900
C     -1.419600   -2.075900   -0.263100
C     -2.746800   -2.679700   -0.247200
C     -3.853200   -3.153500   -0.221000
C     -5.189600   -3.733100   -0.216600
O     -5.520100   -4.173200    1.096800
H      0.982300    1.971700    0.258600
H     -0.622700    2.098400   -0.473400
H     -0.464500    1.781000    1.257800
H      0.441900   -0.139300   -0.974000
H      0.598800   -0.454100    0.744500
H     -1.906100   -0.380900    0.987800
H     -2.063600   -0.064600   -0.730900
H     -0.944800   -2.263900   -1.235900
H     -0.785100   -2.577900    0.480000
H     -5.911300   -2.980300   -0.574800
H     -5.223000   -4.569400   -0.934400
H     -6.405600   -4.548900    1.057100
