17
gdb_2946
C     -0.033700    1.545300    0.015000
C     -0.156500    0.020100    0.038200
C      0.616700   -0.607300    1.181900
O      0.104300   -0.174200    2.435600
C      0.173000   -1.270900    3.341200
C      0.748800   -2.421500    2.491000
O      0.477900   -2.008700    1.162500
H      1.009700    1.859100   -0.101100
H     -0.602400    1.968800   -0.817500
H     -0.412500    1.977900    0.944800
H     -1.203000   -0.285600    0.141700
H      0.220900   -0.412600   -0.895100
H      1.691000   -0.340000    1.125300
H      0.813500   -1.025800    4.197000
H     -0.835200   -1.492400    3.710600
H      1.831700   -2.531600    2.654200
H      0.264900   -3.385100    2.663900
