16
gdb_14914
C      0.031600   -1.197100   -0.037700
C      0.044800    0.003200   -0.006000
C      0.012900    1.459000    0.052000
C     -0.727400    1.989000    1.295800
C     -0.578200    3.511600    1.341700
O      0.790800    3.882400    1.250900
C      1.375900    3.358000    0.091200
O      1.354900    1.952900    0.050600
H      0.032100   -2.258700   -0.072200
H     -0.502000    1.839200   -0.849300
H     -1.782700    1.700600    1.259800
H     -0.275900    1.542500    2.186200
H     -1.146300    3.972500    0.515000
H     -0.953800    3.923900    2.281400
H      0.863500    3.763200   -0.803900
H      2.425600    3.656300    0.094500
