18
gdb_9299
C      0.234100    1.006900   -0.794400
C     -0.304600    0.338900    0.474100
N     -1.463900   -0.534000    0.370200
C     -2.017200   -0.737800   -0.748000
N     -3.126200   -1.569100   -0.866200
C     -3.666800   -2.222200    0.320400
C     -3.709400   -1.773100   -2.098100
O     -4.671800   -2.473300   -2.306600
H      1.100700    1.624500   -0.541200
H      0.558900    0.271600   -1.538500
H     -0.511100    1.659600   -1.261800
H      0.495100   -0.251500    0.941000
H     -0.555700    1.111800    1.212700
H     -1.706200   -0.307600   -1.704900
H     -3.970100   -1.471500    1.054000
H     -4.521000   -2.818600    0.004400
H     -2.902800   -2.854200    0.779100
H     -3.188100   -1.212300   -2.896300
