17
gdb_18929
C     -0.033700    1.532100   -0.004800
C      0.089200    0.013200    0.014400
C      1.044100   -0.618700   -1.023500
N      2.337100    0.072800   -0.671300
C      2.294300   -0.798700    0.530900
C      1.479200   -1.903000   -0.151900
O      0.587800   -2.053900    0.954400
C      0.858300   -0.635900    1.190700
H      0.947200    2.008700    0.026300
H     -0.544400    1.868200   -0.913700
H     -0.622900    1.878800    0.851200
H     -0.897100   -0.457700   -0.026900
H      0.754400   -0.652700   -2.072600
H      3.072000   -0.291700   -1.277500
H      3.173700   -0.924100    1.160300
H      1.832700   -2.822500   -0.619000
H      0.682600   -0.314900    2.216200
