16
gdb_16927
N     -0.071900    1.279300   -0.083900
C     -0.038900    0.023400   -0.011500
O      1.098000   -0.757400    0.038000
C      0.636900   -2.136400    0.086200
C      0.019200   -2.340900    1.480600
N     -1.207600   -1.494900    1.418100
C     -1.203500   -0.948800    0.033800
C     -0.602700   -2.090700   -0.819400
H      0.875400    1.664000   -0.090600
H      1.467900   -2.786300   -0.179900
H     -0.207200   -3.396200    1.669100
H      0.701100   -1.987800    2.260100
H     -2.034600   -2.069000    1.538700
H     -2.157300   -0.509500   -0.245100
H     -0.361300   -1.813200   -1.847900
H     -1.199800   -3.005700   -0.800700
