13
gdb_1451
C      0.089000    1.405800   -0.026800
N     -0.118500   -0.020000   -0.175700
C     -1.304100   -0.611100    0.085900
O     -2.318400   -0.074400    0.462600
O     -1.173900   -1.969600   -0.151800
C     -2.278600   -2.747600    0.058300
N     -2.180300   -3.984700   -0.152100
H      0.868700    1.617800    0.712600
H      0.371800    1.866900   -0.979100
H     -0.850000    1.843100    0.313400
H      0.632800   -0.615300   -0.483300
H     -3.139800   -2.170400    0.396000
H     -3.072700   -4.435500    0.043700
