12
gdb_506
C      0.028000    1.501300    0.009900
C      0.012600    0.045600    0.002200
C     -0.002300   -1.156800   -0.004100
C     -0.014700   -2.621200   -0.011900
C     -1.360900   -3.198300   -0.002100
C     -2.458900   -3.683900    0.005700
H      1.053100    1.887800    0.002200
H     -0.486400    1.908800   -0.867300
H     -0.469600    1.899300    0.901000
H      0.527600   -2.990300   -0.893600
H      0.544300   -2.999700    0.855400
H     -3.432300   -4.107700    0.012800
