11
gdb_23815
F      0.010400    0.011200    0.003400
C     -0.011800    1.332000    0.010600
C     -1.175400    2.002800    0.029500
N     -1.124400    3.379500    0.036100
N      0.017000    4.093200    0.024800
N      1.125500    3.490200    0.007000
C      1.243500    2.062200   -0.002000
N      2.377600    1.479000   -0.020100
H     -2.148700    1.531600    0.039900
H     -1.956700    3.945900    0.050100
H      3.111700    2.191000   -0.026000
