18
gdb_8655
C     -0.219600    1.591900    0.088400
C     -0.003200    0.076500    0.020500
C      0.691000   -0.442500   -1.264900
C      0.005700    0.037200   -2.568400
C      2.170700   -0.012500   -1.324900
O      2.747300    0.604300   -0.470900
C      0.731400   -1.907800   -1.253400
C      0.801300   -3.108500   -1.245000
H      0.724800    2.133200   -0.001300
H     -0.900700    1.947100   -0.690900
H     -0.665100    1.856300    1.052300
H      0.604300   -0.242000    0.872700
H     -0.964700   -0.440800    0.108200
H      0.023000    1.127500   -2.641600
H      0.511000   -0.377600   -3.445100
H     -1.034200   -0.298900   -2.589000
H      2.686100   -0.342400   -2.254500
H      0.848100   -4.169500   -1.232000
