15
gdb_18048
C      0.132800    1.532300    0.250800
O      1.475000    1.527200   -0.272800
C      1.347300    0.155100   -0.719800
C      2.452100   -0.750600   -0.206300
N      2.310000   -1.188400    1.176700
C      1.162600   -1.175200    1.698200
O     -0.028400   -0.764100    1.180700
C     -0.016700    0.021200   -0.006200
H      0.091000    1.827700    1.304400
H     -0.541200    2.165600   -0.340200
H      1.274600    0.109600   -1.814500
H      2.505000   -1.646400   -0.840400
H      3.411800   -0.233700   -0.316400
H      1.003200   -1.551200    2.706900
H     -0.870200   -0.302800   -0.601900
