16
gdb_7060
C      0.002000    1.582100   -0.026400
C      0.007500    0.050900   -0.008700
C      0.758200   -0.510700    1.222600
C      2.163900   -0.114400    1.255500
N      3.274400    0.204400    1.265600
C     -1.425700   -0.532900   -0.010100
C     -2.186200   -0.158500   -1.200000
N     -2.773400    0.143100   -2.148300
H      1.022400    1.973500   -0.039800
H     -0.519700    1.957900   -0.910200
H     -0.502900    1.981800    0.861000
H      0.518400   -0.312800   -0.907200
H      0.277400   -0.163100    2.145700
H      0.710800   -1.606000    1.232900
H     -1.393300   -1.627300    0.045300
H     -1.973000   -0.185900    0.875500
