14
gdb_16740
O     -0.818800    1.252600    0.170500
C      0.277100    0.864800   -0.162500
C      1.473100    1.732300   -0.145400
N      2.657500    1.302600   -0.443900
C      3.550800    2.407300   -0.277000
C      3.335000    3.644900   -1.129100
C      2.694600    3.609400    0.225400
N      1.378600    3.042000    0.247900
H      0.483200   -0.174500   -0.481200
H      4.555400    2.174500    0.056900
H      4.201400    4.287100   -1.239700
H      2.699800    3.567800   -2.005200
H      2.961400    4.302700    1.013800
H      0.616800    3.371400    0.816600
