20
gdb_18354
C     -0.124400    1.557900   -0.106200
C     -0.010300    0.032100   -0.042600
C      0.959600   -0.511500   -1.156500
C      2.300300   -0.661800   -0.442700
C      2.087100   -0.730500    0.866200
C      2.623000   -0.385600    2.236300
C      1.237100    0.327500    2.467500
C      0.655700   -0.497600    1.257300
H      0.861000    2.032400   -0.041600
H     -0.579800    1.871100   -1.051500
H     -0.741200    1.949600    0.709300
H     -1.011300   -0.393900   -0.168300
H      0.602000   -1.467000   -1.565700
H      1.022300    0.180100   -2.005600
H      3.253600   -0.634300   -0.958000
H      2.735300   -1.256700    2.891000
H      3.532800    0.216900    2.295400
H      0.764300    0.179100    3.441300
H      1.300000    1.396500    2.255900
H      0.149100   -1.394900    1.634400
