14
gdb_2318
O     -0.089500    1.441700    0.190000
C      0.016700    0.050400    0.098100
C     -0.614100   -0.813200    1.161000
C     -1.250500   -0.696800   -0.208700
C     -2.544100    0.083900   -0.379400
C     -3.718600   -0.677600    0.046900
N     -4.640100   -1.288200    0.384000
H      0.473100    1.738600    0.912600
H      0.930600   -0.306000   -0.376000
H     -0.137400   -1.746400    1.438600
H     -1.109700   -0.295500    1.976100
H     -1.158000   -1.557900   -0.862400
H     -2.490700    1.014400    0.192800
H     -2.679400    0.372900   -1.428200
