18
gdb_15587
C     -0.399100    1.435400    0.364700
N      0.105100    0.111000    0.011600
C     -0.949700   -0.851800   -0.334400
C     -1.451600   -1.449000    1.001400
C     -0.206500   -1.396500    1.921000
C      0.831600   -0.532100    1.115200
C      1.915300   -1.374000    0.579300
N      2.762100   -2.049500    0.176300
H      0.442100    2.095900    0.595000
H     -0.924100    1.856600   -0.496800
H     -1.091000    1.450800    1.225600
H     -1.731300   -0.364500   -0.921200
H     -0.508700   -1.639800   -0.956100
H     -2.261000   -0.841100    1.415300
H     -1.837900   -2.463500    0.879800
H     -0.426700   -0.920300    2.878500
H      0.196000   -2.388100    2.134800
H      1.296900    0.230600    1.745600
