17
gdb_17255
C     -0.008600    1.476500   -0.032600
N      1.239500    0.678200    0.037600
C     -0.059500    0.004300   -0.001400
C     -0.531300   -0.892500    1.160700
C     -1.096400   -2.028700    0.278700
C     -0.001900   -2.266300   -0.787100
C     -0.519300   -0.861800   -1.174100
O     -1.850200   -1.273700   -0.731300
H     -0.231200    2.048100    0.864500
H     -0.253100    1.983900   -0.963100
H      1.681000    0.649500   -0.880000
H      0.291800   -1.201200    1.810000
H     -1.316600   -0.431000    1.763700
H     -1.661800   -2.833300    0.747500
H      1.037600   -2.385700   -0.471200
H     -0.298300   -3.023500   -1.513200
H     -0.479300   -0.448000   -2.182900
