18
gdb_20874
C      0.068600    1.558700   -0.029000
C      0.291300    0.045400   -0.075700
C      0.460700   -0.575400    1.323700
C      0.682200   -2.057600    1.291000
N     -0.305400   -2.898800    1.598800
N      0.226900   -4.126500    1.435000
C      1.520700   -4.095800    1.036400
C      1.856900   -2.764700    0.929200
H      0.913900    2.070200    0.445500
H     -0.050800    1.975500   -1.034000
H     -0.831000    1.808600    0.544500
H     -0.553200   -0.442300   -0.577000
H      1.177800   -0.181200   -0.681100
H      1.303100   -0.088100    1.831600
H     -0.433300   -0.373700    1.923200
H     -0.342100   -4.933100    1.625500
H      2.085500   -4.999600    0.869700
H      2.811500   -2.357700    0.636500
