14
gdb_8792
C     -0.466600    1.399500   -0.242100
C     -0.232600   -0.106700   -0.316000
C      0.840800   -0.499300   -1.300300
O      1.439500    0.258400   -2.025300
C      1.268300   -1.977800   -1.311600
O      1.430500   -2.611000   -0.296000
C      1.527000   -2.648500   -2.668000
O      1.016400   -2.278200   -3.689000
H      0.438200    1.919200    0.083400
H     -0.740200    1.800900   -1.221100
H     -1.269100    1.628000    0.463700
H      0.044100   -0.537400    0.654800
H     -1.147700   -0.643500   -0.608400
H      2.154800   -3.560900   -2.584600
