16
gdb_19271
C     -0.129000    1.348200    0.025300
O      0.293200    0.005800    0.163800
C      0.764100   -0.572800   -1.021200
C      1.296300   -1.989000   -0.879100
C      0.212900   -2.937900   -0.585500
N      0.379200   -2.500900   -2.001500
C     -0.222600   -1.182600   -2.050100
N     -1.165000   -0.833600   -2.804000
H      0.663500    1.977800   -0.407100
H     -1.027600    1.437600   -0.600900
H     -0.366100    1.713500    1.026800
H      1.481200    0.091600   -1.529200
H      2.344100   -2.261600   -0.861500
H      0.481300   -3.979200   -0.442600
H     -0.664200   -2.606800   -0.037800
H     -1.382100    0.156700   -2.685400
