15
gdb_21034
C     -0.061800    1.426300   -0.074600
N      0.000700   -0.014900   -0.004600
N     -0.017200   -0.794500   -1.135400
C      0.056500   -2.019500   -0.646300
C      0.068000   -3.228700   -1.518000
N      0.121300   -2.089700    0.723400
C      0.083200   -0.821700    1.066100
O      0.118100   -0.321000    2.308300
H      0.787400    1.814800   -0.643200
H     -0.988500    1.742100   -0.561400
H     -0.031300    1.822800    0.940900
H      0.982300   -3.810400   -1.362700
H     -0.776600   -3.884400   -1.283200
H      0.008100   -2.933600   -2.566800
H      0.176400   -1.076600    2.906400
