20
gdb_11752
C      0.034000    1.510900   -0.047100
C     -0.097500   -0.013400    0.079200
C      0.727400   -0.559900    1.202300
C      2.175300   -0.943900    1.167700
C      1.138100   -1.945000    1.650000
C      0.608600   -1.524200    3.020700
C      1.482600   -1.583100    4.256600
O      0.367600   -0.166500    2.539000
H      1.067100    1.799700   -0.265300
H     -0.603500    1.894100   -0.849300
H     -0.261000    1.999000    0.886200
H     -1.148200   -0.281600    0.244900
H      0.214200   -0.500100   -0.852500
H      2.578100   -1.167500    0.184300
H      2.878200   -0.483000    1.855600
H      0.990200   -2.910000    1.183200
H     -0.360600   -2.000800    3.221600
H      2.477000   -1.170600    4.067100
H      1.024400   -1.012400    5.070700
H      1.593400   -2.620900    4.589400
