17
gdb_10834
C     -0.164500    1.497500    0.050500
C      0.024800   -0.009600   -0.001800
C      0.786600   -0.457100   -1.240400
O      1.076700   -1.863800   -1.228100
C      1.398100   -2.460600   -0.046100
N      2.006700   -3.567000    0.010300
C      0.883900   -1.807500    1.222400
O      0.773100   -0.400500    1.141200
H      0.804400    2.005700    0.040400
H     -0.752800    1.845600   -0.803700
H     -0.686700    1.775500    0.969000
H     -0.957100   -0.514700    0.015500
H      0.210500   -0.281500   -2.152900
H      1.732000    0.097600   -1.305700
H      2.227000   -3.897700   -0.931800
H     -0.098500   -2.254600    1.453500
H      1.564700   -2.044100    2.040100
