14
gdb_1289
N     -0.217700    1.266700   -0.167900
C      0.015500   -0.076100   -0.064100
O      1.101500   -0.602800   -0.066400
O     -1.165700   -0.745300    0.010000
C     -1.057500   -2.179900    0.062100
C     -2.478000   -2.712000    0.017800
O     -3.139900   -2.368200   -1.183400
H      0.577200    1.864400   -0.019500
H     -1.125400    1.622900    0.078900
H     -0.476200   -2.529500   -0.795400
H     -0.541500   -2.479800    0.980300
H     -2.450400   -3.805400    0.065200
H     -3.029600   -2.352500    0.901200
H     -3.059300   -1.412500   -1.275500
