19
gdb_7856
C     -0.002700    1.533500   -0.204500
C      0.051200    0.037200   -0.004300
N      1.379200   -0.601500   -0.027000
C      0.582700   -0.632500    1.213200
C      1.158700    0.100300    2.400800
C      1.921500   -0.820800    3.353400
C      2.835700   -0.133900    4.351000
O      1.794400   -2.023100    3.323400
H      0.836100    2.032800    0.285600
H      0.043100    1.779200   -1.270800
H     -0.935300    1.947700    0.194900
H     -0.754700   -0.500700   -0.503900
H      1.341600   -1.501900   -0.496200
H      0.127600   -1.582100    1.482000
H      1.817300    0.912800    2.079100
H      0.360100    0.571000    2.995000
H      2.323000    0.697100    4.847400
H      3.191500   -0.852500    5.090300
H      3.694600    0.294600    3.820700
