16
gdb_13971
C      0.021600    1.445300    0.038000
C     -0.013000   -0.008000    0.003400
C     -0.040000   -1.213100   -0.019900
C     -0.051100   -2.632200   -0.048300
C     -0.399000   -3.496400   -1.231200
C     -1.163100   -3.677500    0.057700
C     -0.258800   -4.337900    1.086700
O      0.798500   -3.370100    0.851400
H      0.803900    1.797100    0.719500
H      0.229600    1.867200   -0.951600
H     -0.930700    1.860700    0.386600
H     -0.949000   -2.998200   -2.022400
H      0.322000   -4.241500   -1.557200
H     -2.231800   -3.536600    0.139400
H     -0.630500   -4.257100    2.114400
H      0.068100   -5.365700    0.889200
