16
gdb_13901
C      0.045500    1.408500    0.044000
C      0.010300   -0.099700   -0.031200
O      1.059600   -0.750600   -0.107900
C     -1.287500   -0.765600   -0.011200
C     -1.388200   -2.111200   -0.816700
O     -0.359300   -2.516200   -1.636200
C     -1.326900   -2.186300    0.659500
O     -0.235500   -2.667800    1.345900
H      1.077700    1.759000    0.019200
H     -0.513200    1.841500   -0.793100
H     -0.440600    1.752100    0.963900
H     -2.170500   -0.140700    0.057300
H     -2.351600   -2.265700   -1.293000
H      0.469500   -2.166100   -1.268700
H     -2.248200   -2.392300    1.195800
H      0.561600   -2.279000    0.948400
