16
gdb_358
C     -0.069100    1.542400    0.108300
C      0.027500    0.026100   -0.040400
C      0.750000   -0.418600   -1.307600
O      1.194500    0.378400   -2.102700
C      0.881300   -1.923400   -1.517200
C      1.613600   -2.300200   -2.802700
H      0.925100    1.995700    0.131500
H     -0.605000    1.983300   -0.736100
H     -0.593900    1.808900    1.030000
H      0.545600   -0.424500    0.817600
H     -0.969100   -0.436800   -0.041700
H      1.385900   -2.342800   -0.635600
H     -0.128900   -2.355300   -1.494800
H      1.095400   -1.900000   -3.677800
H      2.625400   -1.887000   -2.810000
H      1.681300   -3.386800   -2.906000
