17
gdb_14978
C     -0.104900    1.371800    0.010300
O     -0.091400   -0.046400   -0.061900
C      0.643700   -0.560300   -1.109900
C      0.732700   -2.069600   -0.983100
C      1.374200   -2.647700   -2.249300
N      0.799300   -2.115300   -3.481300
C      0.179800   -1.016700   -3.412800
O     -0.012500   -0.198400   -2.346500
H      0.917100    1.775100    0.061800
H     -0.618300    1.812800   -0.850600
H     -0.638800    1.634200    0.925400
H      1.645300   -0.097800   -1.148600
H      1.300400   -2.326500   -0.084600
H     -0.285000   -2.454100   -0.859100
H      2.456100   -2.456000   -2.260100
H      1.261700   -3.736600   -2.263700
H     -0.298300   -0.589900   -4.292800
