12
gdb_12960
O      0.021700    1.390300   -0.019200
C     -0.072100    0.013700   -0.016600
C     -0.478800   -0.780300    1.167000
O     -1.459700    0.010400    1.895200
C     -2.390000   -0.136600    0.848100
O     -3.528000    0.187800    0.851800
C     -1.390200   -0.812700   -0.059200
O     -1.640700   -1.816800   -0.952800
H     -0.393600    1.711400    0.792500
H      0.679800   -0.445600   -0.654600
H      0.033900   -1.561500    1.711100
H     -1.724100   -1.436300   -1.834800
