13
gdb_4318
N     -0.013300    1.347800   -0.091500
C      0.014800   -0.011800   -0.037200
N     -1.145700   -0.632100   -0.019100
C     -1.200700   -2.001100   -0.007500
O     -2.211600   -2.671400    0.005000
N      0.057900   -2.675500   -0.003700
C      1.247400   -2.035300   -0.015200
C      1.287900   -0.680300   -0.033600
H      0.809300    1.880000    0.130200
H     -0.909800    1.783100    0.054500
H     -0.000400   -3.682400    0.010700
H      2.136900   -2.655500   -0.010100
H      2.224200   -0.140700   -0.052700
