17
gdb_18499
O     -0.266500   -0.087100    0.146600
C     -0.112700    1.093000   -0.028400
C      1.229100    1.798300   -0.020600
C      1.370000    2.770000   -1.187200
C      2.720300    3.491700   -1.461400
C      2.655000    2.866900   -2.854100
C      2.569600    1.399600   -2.764900
N      1.327400    2.176400   -2.577400
H     -0.984000    1.767300   -0.200300
H      1.287100    2.378700    0.912700
H      2.020000    1.044600    0.013500
H      0.552100    3.496000   -1.138800
H      2.630100    4.579000   -1.450300
H      3.582400    3.203800   -0.851700
H      2.836000    3.389700   -3.787300
H      2.558600    0.833300   -3.690600
H      3.023600    0.877500   -1.926400
