15
gdb_8169
O      0.055100    1.412000    0.035400
C     -0.009900    0.042700    0.075900
C      0.309300   -0.833200    1.331700
C     -0.355300   -1.915200    0.438200
C     -1.334400   -0.809600   -0.054900
N      0.645500   -2.001500   -0.660400
C      0.822100   -0.675000   -0.995900
O      1.426600   -0.151800   -1.903600
H      0.595700    1.629800   -0.740900
H      1.354500   -0.983400    1.609100
H     -0.300300   -0.556800    2.194000
H     -0.675100   -2.881200    0.818000
H     -2.086700   -0.522700    0.682800
H     -1.779100   -0.929100   -1.046400
H      0.609300   -2.718000   -1.370500
