20
gdb_12238
C      0.039800    1.684400   -0.029300
C     -0.139200    0.164100   -0.087500
C      0.696500   -0.492900   -1.186200
C      2.224000   -0.583100   -0.856400
C      2.012600   -2.079900   -0.581700
O      2.626500   -2.910900    0.024000
C      0.628100   -2.065900   -1.247200
C     -0.500100   -2.868500   -0.613500
H      1.082900    1.959500    0.160300
H     -0.257400    2.152400   -0.974400
H     -0.568700    2.124300    0.766600
H      0.122500   -0.272200    0.886200
H     -1.198400   -0.070500   -0.249900
H      0.478100   -0.014400   -2.144900
H      2.875700   -0.415700   -1.719800
H      2.600900    0.008100   -0.017300
H      0.765800   -2.382000   -2.290400
H     -0.671900   -2.574800    0.425700
H     -1.439000   -2.743500   -1.162300
H     -0.245400   -3.932500   -0.616900
