14
gdb_21046
C      0.124400    1.388000   -0.074000
N      0.083500   -0.048600   -0.008700
N      0.137500   -0.823000   -1.165500
C      0.062100   -2.044000   -0.732000
N     -0.023900   -3.173400   -1.528200
N      0.000400   -2.106500    0.636900
C     -0.004300   -0.792600    1.141200
O     -0.069200   -0.434600    2.299700
H      1.052200    1.732000   -0.542500
H     -0.725200    1.777600   -0.644200
H      0.074800    1.755100    0.952500
H      0.097600   -2.930000   -2.503700
H      0.620400   -3.909200   -1.263800
H     -0.184700   -2.913400    1.206700
