14
gdb_4706
C      0.110300    1.455800    0.040700
C     -0.061400   -0.018600   -0.018100
C     -1.156700   -0.825200   -0.183200
C     -0.676100   -2.160800   -0.152000
C      0.681000   -2.082400    0.030100
O      1.055300   -0.769700    0.111900
C      1.686200   -3.122200    0.138300
O      2.874100   -2.948400    0.300300
H      0.780000    1.806500   -0.752000
H     -0.855700    1.950500   -0.076300
H      0.546600    1.764100    0.996900
H     -2.175300   -0.493800   -0.310400
H     -1.249100   -3.070400   -0.250300
H      1.246400   -4.141000    0.055000
