18
gdb_18191
C     -0.437100   -1.110700   -0.810400
C     -0.213500   -0.016800   -0.363800
C      0.059800    1.304900    0.188000
C     -0.306100    1.438100    1.696900
C      0.584300    2.582900    2.226200
C      1.840600    2.531000    1.367700
C      2.477800    1.181100    1.138400
C      1.526300    1.745000    0.115100
H     -0.633000   -2.074500   -1.210100
H     -0.528400    2.041200   -0.377300
H     -1.372900    1.624500    1.838900
H     -0.078400    0.499000    2.208100
H      0.089500    3.551100    2.082300
H      0.785700    2.481000    3.298100
H      2.473800    3.410500    1.326300
H      3.529100    1.169300    0.873200
H      2.169700    0.332500    1.740700
H      1.914900    2.033100   -0.854800
