17
gdb_13837
N     -0.216800    1.301300    0.691300
C      0.044400    0.195700   -0.065500
O      1.154300   -0.039500   -0.506500
C     -1.152600   -0.709800   -0.337200
C     -1.629300   -0.603100   -1.819900
C     -1.993100   -2.026100   -2.169400
C     -1.559600   -2.892800   -1.257700
C     -0.822300   -2.213400   -0.129600
H      0.528700    1.960000    0.847600
H     -1.138100    1.523000    1.023300
H     -1.989000   -0.437300    0.315300
H     -2.462600    0.099300   -1.934000
H     -0.817400   -0.241500   -2.464700
H     -2.504400   -2.283100   -3.090500
H     -1.664400   -3.970500   -1.316000
H      0.259700   -2.374200   -0.215000
H     -1.124900   -2.567700    0.862100
