19
gdb_2860
C      0.542500    1.404500    0.202000
C     -0.280800    0.152000   -0.124300
C      0.200000   -0.518100   -1.389600
O      1.436400   -1.243100   -1.322800
C      0.238900   -1.969800   -1.633500
C     -0.195200   -3.040500   -0.660800
C      0.695200   -4.286200   -0.754200
H      1.596400    1.144900    0.339400
H      0.481800    2.140800   -0.606900
H      0.185700    1.883900    1.118300
H     -0.231300   -0.549600    0.713200
H     -1.337300    0.421400   -0.254200
H      0.126200    0.118700   -2.276200
H      0.190700   -2.285100   -2.680100
H     -0.175000   -2.649500    0.360300
H     -1.237300   -3.307500   -0.880800
H      0.665900   -4.720000   -1.759700
H      1.735200   -4.031200   -0.530300
H      0.371900   -5.056500   -0.047900
