11
gdb_65
C     -0.010600    1.541300    0.007200
C     -0.002000    0.007600    0.038600
N      0.762700   -0.471000    1.192500
C     -1.385400   -0.521000   -0.001900
N     -2.456800   -0.956400    0.006900
H      1.020400    1.901100    0.003900
H     -0.528700    1.911900   -0.880300
H     -0.518500    1.941500    0.890100
H      0.504200   -0.358100   -0.862800
H      0.300700   -0.183600    2.051600
H      0.781500   -1.486700    1.204300
