14
gdb_20512
C     -0.062800    1.501800    0.009900
C      0.048800   -0.014500    0.003200
O      1.123300   -0.578900   -0.008200
C     -1.204300   -0.790000    0.011000
C     -1.396700   -2.164200    0.007500
C     -2.789200   -2.334100    0.018800
N     -3.432400   -1.161800    0.028700
N     -2.457700   -0.247200    0.023700
H      0.939100    1.931300    0.003100
H     -0.613000    1.856600   -0.869500
H     -0.598200    1.850000    0.900900
H     -0.619400   -2.909500   -0.001900
H     -3.357900   -3.251900    0.020200
H     -2.708200    0.727500    0.029400
