17
gdb_5609
C     -0.249500    0.627000   -0.763100
O      0.219300    0.911900    0.542300
C      0.788700   -0.136500    1.182100
C      1.040600   -1.442300    0.825200
C      1.678400   -2.044600    1.953500
C      1.785900   -1.094000    2.933700
N      1.230600    0.082500    2.459400
C      1.185300    1.353500    3.149600
H      0.572600    0.307600   -1.416400
H     -1.014000   -0.160400   -0.745000
H     -0.683900    1.551100   -1.147300
H      0.797600   -1.910900   -0.114000
H      2.010200   -3.068700    2.027400
H      2.196400   -1.135000    3.929500
H      1.984100    2.026500    2.816600
H      0.226300    1.844400    2.970000
H      1.297800    1.178400    4.221300
