14
gdb_19773
C     -0.004900    1.524300   -0.083400
O      1.262800    2.084300    0.272400
C      2.219600    1.135900    0.648400
C      2.247400   -0.216500   -0.034700
O      1.079500   -0.494800   -0.778800
C      0.039500    0.006000    0.049300
O      0.397600   -0.325600    1.383500
C      1.792300   -0.103500    1.408300
H     -0.776400    1.934500    0.580500
H     -0.240700    1.801600   -1.118700
H      3.158000    1.613800    0.906900
H      3.131500   -0.715800   -0.408500
H     -0.903100   -0.479400   -0.209900
H      2.281900   -0.504900    2.285700
