20
gdb_7219
C      0.067600    1.497100    0.063700
C      0.032800    0.041800    0.025800
C      0.008200   -1.161600   -0.009900
C     -0.028700   -2.622800   -0.060400
C     -1.470500   -3.138300    0.125100
C      0.637100   -3.143500   -1.370600
C      0.929500   -4.645200   -1.336500
O     -0.109600   -2.786400   -2.524800
H      0.862700    1.861900    0.723700
H      0.247100    1.916000   -0.932800
H     -0.879400    1.909800    0.429100
H      0.579400   -3.010000    0.769900
H     -1.506500   -4.231700    0.153100
H     -1.889000   -2.763500    1.062000
H     -2.112800   -2.781800   -0.685800
H      1.584500   -2.605200   -1.480600
H      0.009200   -5.235200   -1.255200
H      1.436800   -4.941900   -2.258300
H      1.570400   -4.907500   -0.488500
H     -0.898400   -3.338200   -2.549400
