18
gdb_18296
C     -0.363200    1.473600   -0.159200
C     -0.052900    0.000700   -0.011700
C      1.331800   -0.551500   -0.309800
O      2.354000    0.353900   -0.614100
C      3.266300    0.469600    0.472500
C      2.555000    1.056800    1.679200
O      1.404600    0.305700    2.062400
C      0.820200   -0.533200    1.106500
H      0.549300    2.072100   -0.181800
H     -0.898200    1.659700   -1.095900
H     -0.989100    1.831100    0.664600
H     -0.866600   -0.666000   -0.287200
H      1.425800   -1.499700   -0.837900
H      3.702000   -0.511600    0.713200
H      4.068500    1.137400    0.146100
H      3.223800    1.079300    2.547400
H      2.258000    2.090500    1.451300
H      0.531400   -1.475600    1.563300
