16
gdb_665
C     -0.031400    1.551600    0.024400
C      0.087900    0.042500    0.071600
C      1.336200   -0.748700   -0.220300
C      2.593400   -0.056100    0.323200
C      1.962200   -0.061200    1.753100
C      0.715200   -0.753600    1.186200
H      0.856700    2.054100    0.416200
H     -0.177500    1.898700   -1.004600
H     -0.888900    1.893200    0.615000
H     -0.794800   -0.461700   -0.319900
H      1.341500   -1.538100   -0.963400
H      3.479100   -0.692800    0.267500
H      2.844600    0.916500   -0.112600
H      2.519500   -0.700400    2.441300
H      1.806800    0.908200    2.238000
H      0.171700   -1.547400    1.686100
