15
gdb_19996
N      0.051200   -1.109800    0.546200
C      0.085100    0.026400    0.336900
C      0.085300    1.439000    0.041500
N      0.732900    2.331000    1.025000
C      1.335100    2.200800   -0.297500
C      2.694500    1.572800   -0.363200
C      3.783200    2.139400    0.475800
N      3.224200    0.812600    0.769000
H     -0.834200    1.779700   -0.427300
H      0.200700    3.190600    1.121500
H      1.177500    3.010700   -1.009400
H      2.941500    1.158000   -1.338300
H      4.805700    2.142400    0.109800
H      3.526100    2.964300    1.135600
H      2.575000    0.888900    1.550800
