17
gdb_1475
C     -0.094300    1.423700    0.051100
O      0.053300    0.025000   -0.015500
C      0.687400   -0.559800    1.109900
C     -0.293300   -0.769000    2.266800
C      1.278900   -1.897100    0.628000
C      2.353200   -1.736400   -0.343200
C      3.253500   -1.598300   -1.126900
H      0.876900    1.927800    0.172500
H     -0.540600    1.743900   -0.893600
H     -0.753800    1.743300    0.871800
H      1.514800    0.087500    1.441600
H      0.214400   -1.199700    3.135800
H     -0.741100    0.178100    2.580100
H     -1.100400   -1.443800    1.963700
H      1.646100   -2.457400    1.496500
H      0.463700   -2.487600    0.191500
H      4.041800   -1.480000   -1.828100
