18
gdb_12379
C      0.067700    1.580700   -0.020000
C      0.100200    0.049500   -0.013200
C      0.702000   -0.548500   -1.292500
C      0.856000   -2.059000   -1.133400
C      1.765600   -2.338000    0.051300
O      1.354900   -1.683500    1.263700
C      0.748300   -0.470100    1.276300
O      0.669000    0.118200    2.321400
H      1.079100    1.991900   -0.104400
H     -0.517500    1.943700   -0.870500
H     -0.371500    1.960100    0.903300
H     -0.936900   -0.313700    0.060100
H      0.067500   -0.297800   -2.148900
H      1.684200   -0.096000   -1.486800
H     -0.123700   -2.525000   -0.971000
H      1.290400   -2.519000   -2.027500
H      1.800200   -3.401900    0.299700
H      2.790200   -2.012400   -0.173700
