14
gdb_14639
C      0.066700    1.522600   -0.024300
C      0.030400    0.068900    0.038400
C     -0.001300   -1.131900    0.089900
C     -0.032500   -2.593500    0.153500
C     -1.373300   -3.166200    0.045600
C     -2.470000   -3.662100   -0.041400
C     -3.797900   -4.209000   -0.149200
O     -4.058800   -5.389800   -0.121500
H      0.671000    1.868800   -0.869700
H     -0.940200    1.936800   -0.143600
H      0.495600    1.949000    0.888900
H      0.593600   -3.020300   -0.643200
H      0.420100   -2.941100    1.093300
H     -4.592600   -3.443800   -0.263500
