13
gdb_20441
C      0.042400    1.408300   -0.109500
C      1.542500    1.796600    0.061500
N      2.020100    0.573000    0.672600
N      3.194200    0.145400    1.199200
N      3.017700   -1.120000    1.462900
C      1.756600   -1.526200    1.104200
C      1.123900   -0.424000    0.588000
O     -0.035500   -0.039600    0.019000
H     -0.572100    1.851900    0.679900
H     -0.365400    1.680600   -1.083400
H      2.047300    1.983100   -0.891700
H      1.675600    2.662800    0.712300
H      1.416900   -2.537200    1.242200
