18
gdb_16225
C     -0.233900    1.482900    0.075300
C     -0.039400    0.001800    0.005100
C      0.016000   -0.776300   -1.078900
C      0.225600   -2.236700   -0.760300
C      0.109200   -2.294900    0.785300
C      0.107700   -0.832100    1.237600
C      0.737500   -0.354200    2.480400
O     -0.682500   -0.482000    2.388600
H      0.672000    1.991300    0.429100
H     -0.489600    1.899200   -0.902200
H     -1.032400    1.728800    0.783700
H     -0.059600   -0.412600   -2.098600
H     -0.507900   -2.879600   -1.260800
H      1.211000   -2.576900   -1.105200
H     -0.838100   -2.748400    1.091200
H      0.911800   -2.874200    1.248200
H      1.232000   -1.073600    3.133500
H      1.112400    0.666100    2.556200
