16
gdb_4123
C      0.021600    1.534500    0.009000
C     -0.041400    0.040100   -0.073800
C     -0.858500   -0.821400    0.826300
N      0.599800   -0.928200    0.944300
C      1.013300   -1.820900   -0.203800
C      0.478000   -0.798700   -1.184900
N      0.626200   -0.522000   -2.411800
O      1.298700   -1.564700   -3.079100
H      0.988500    1.904400   -0.344400
H     -0.759400    1.984100   -0.613300
H     -0.126100    1.868400    1.039600
H     -1.322600   -0.326100    1.674500
H     -1.423300   -1.661500    0.426300
H      2.100300   -1.921700   -0.255900
H      0.555900   -2.814900   -0.185300
H      1.365700   -1.220900   -3.976300
