14
gdb_18313
O     -0.066400    0.014300    0.195000
C     -0.035300    1.200600    0.055800
C     -1.261700    2.176000    0.041400
C     -0.665800    3.422000    0.674100
C      0.656900    3.401100    0.516200
C      1.973500    3.567900    1.232600
O      2.291300    2.178800    0.881900
C      1.190600    2.144200   -0.073800
H     -1.606800    2.307000   -0.993000
H     -2.097200    1.753200    0.607000
H     -1.237500    4.096800    1.299900
H      2.695800    4.253600    0.772900
H      1.937600    3.735100    2.313800
H      1.566300    2.135100   -1.106800
