18
gdb_17135
C     -0.473600    1.250700    0.194400
C      0.398500    0.013500    0.175900
C      0.855400   -0.548100   -1.188800
C      2.285000   -0.341300   -0.634800
O      1.775500    0.302800    0.548600
C      3.052600   -1.603400   -0.325500
C      3.555000   -1.883000    1.023800
O      2.391600   -2.547700    0.516100
H     -0.077700    2.017800   -0.478500
H     -1.493400    1.002000   -0.119700
H     -0.521300    1.670700    1.204200
H     -0.009500   -0.759400    0.838400
H      0.576200   -1.580400   -1.401600
H      0.604500    0.088400   -2.039500
H      2.928300    0.334500   -1.215000
H      3.570000   -2.043200   -1.181200
H      4.433000   -2.513800    1.153300
H      3.357900   -1.156800    1.807600
