13
gdb_16091
N      0.000500   -1.127100    0.113100
C      0.035700    0.025600    0.033700
C      0.049000    1.461100   -0.097800
C     -0.948600    2.161300   -1.022300
C     -0.201500    3.412700   -1.433900
C      1.036700    3.459600   -0.936200
C      1.287800    2.280400   -0.057900
O      0.395100    2.202200    1.073500
H     -1.198200    1.528300   -1.881900
H     -1.885500    2.382000   -0.498900
H     -0.662300    4.177800   -2.047500
H      1.766100    4.241900   -1.098600
H      2.273400    1.857400    0.106900
