12
gdb_3809
C     -0.014600    1.399500    0.008400
O      0.004100   -0.030800    0.002800
C     -1.189700   -0.626700    0.009800
N     -2.326400    0.034000    0.021300
O     -3.315100   -0.955300    0.025200
C     -2.725000   -2.159000    0.015900
C     -1.376500   -2.041400    0.005800
H      1.030500    1.710000    0.001200
H     -0.533500    1.783000   -0.875400
H     -0.519300    1.776200    0.903200
H     -3.392800   -3.007000    0.017900
H     -0.624600   -2.811000   -0.003000
