15
gdb_15733
O     -0.601000   -0.066500    1.167000
C     -0.226100    1.040100    0.861900
C      1.240600    1.488000    1.003400
C      1.961400    1.360400   -0.258000
C      2.541300    1.244900   -1.304600
N     -1.084800    2.046200    0.443000
C     -1.057800    2.728800   -0.840000
C     -2.194000    1.825700   -0.451600
H      1.275100    2.525000    1.354800
H      1.697100    0.849800    1.765500
H      3.068800    1.138100   -2.220000
H     -1.186000    3.807200   -0.804400
H     -0.355700    2.369000   -1.585700
H     -2.257200    0.849400   -0.924200
H     -3.142800    2.257200   -0.146700
