15
gdb_17760
C     -0.105500    1.489300    0.028000
C      0.000200    0.002800   -0.023700
C      0.902400   -0.987700   -0.811500
C     -0.175200   -2.013200   -0.837900
N      0.825100   -2.013800    0.287700
C     -0.073800   -1.058400    1.068100
C     -1.108200   -1.048400   -0.036300
O     -2.450900   -0.798600   -0.046000
H      0.819500    1.948700    0.394300
H     -0.322900    1.908700   -0.961100
H     -0.918700    1.788000    0.697500
H      1.787100   -0.858200   -1.426000
H     -0.334300   -2.878700   -1.471600
H     -0.124000   -0.993800    2.148600
H     -2.900100   -1.493100    0.450600
