9
gdb_774
O      0.010900   -0.052200    0.003000
C     -0.014900    1.158100    0.009800
N     -1.124200    2.017700    0.028800
C     -0.679400    3.314900    0.030000
N      0.614000    3.388600    0.013500
N      1.018600    2.073800    0.000900
H     -2.073300    1.688300    0.039700
H     -1.333300    4.172400    0.043200
H      1.996800    1.846000   -0.012800
