20
gdb_12314
C      0.396400    1.543900    0.131100
C      0.188200    0.060500   -0.021000
C     -0.044100   -0.579500   -1.174800
C     -0.203000    0.055900   -2.530700
C     -0.178800   -2.088300   -1.210500
O      0.212000   -2.754000   -0.030400
C     -0.310500   -2.122700    1.123200
C      0.271200   -0.720600    1.274900
H      1.336900    1.742200    0.661800
H      0.435400    2.080000   -0.818000
H     -0.399800    1.991500    0.740800
H      0.628900   -0.214500   -3.194600
H     -1.117200   -0.306400   -3.019400
H     -0.262300    1.144100   -2.493600
H     -1.222400   -2.351200   -1.473700
H      0.453300   -2.495400   -2.010200
H     -1.411100   -2.069200    1.064800
H     -0.049500   -2.761400    1.972000
H      1.317400   -0.782000    1.607300
H     -0.267500   -0.182900    2.067500
