19
gdb_12820
C     -0.026900    1.522100    0.008500
C      0.006100    0.010100    0.031600
C     -1.225100   -0.672500   -0.546500
C     -1.280800   -2.165800   -0.212500
O     -1.103200   -2.379600    1.172800
C      0.206600   -2.058500    1.608600
C      0.726200   -0.711500    1.119800
N      1.333500   -0.578400   -0.222700
H      0.906500    1.931500    0.402300
H     -0.150600    1.891600   -1.016200
H     -0.860200    1.905800    0.607700
H     -2.117200   -0.190800   -0.128900
H     -1.262800   -0.526800   -1.634400
H     -2.260700   -2.578200   -0.468800
H     -0.528300   -2.731900   -0.790600
H      0.162900   -2.061100    2.701600
H      0.908200   -2.856300    1.305100
H      1.244200   -0.127000    1.877500
H      1.248600   -1.459800   -0.726600
