13
gdb_181
O     -0.150100    1.343900    0.182800
N      0.025000   -0.054000    0.135200
C     -1.079800   -0.639200   -0.061000
C     -2.521700   -0.211800   -0.254100
C     -2.893900   -1.723500   -0.389700
C     -1.392400   -2.117800   -0.185800
H      0.749100    1.654100    0.333700
H     -2.954100    0.311500    0.603900
H     -2.692900    0.403800   -1.142200
H     -3.564700   -2.093900    0.387200
H     -3.302900   -2.001500   -1.362400
H     -0.919700   -2.614600   -1.038000
H     -1.181500   -2.706900    0.711400
