19
gdb_7849
C     -0.310000    1.336200    0.417700
C      0.077300   -0.096200    0.134700
C      1.437500   -0.438100   -0.427400
C      1.089800   -0.823200    0.987800
N      1.755900   -0.139600    2.056900
C      1.167200    0.025000    3.284600
C      2.082000    0.590700    4.362100
O      0.006100   -0.268100    3.496300
H      0.554000    1.922300    0.743300
H     -0.720900    1.813800   -0.478100
H     -1.061600    1.382000    1.211300
H     -0.742000   -0.724700   -0.203100
H      1.533800   -1.226200   -1.165700
H      2.135200    0.384100   -0.557400
H      0.884400   -1.872600    1.185600
H      2.751000   -0.001400    1.980600
H      2.917100    1.169100    3.957100
H      1.490100    1.221300    5.026900
H      2.489900   -0.232400    4.958400
