14
gdb_990
C     -0.060400    1.519500    0.022700
C     -0.015500    0.024500    0.008200
C     -0.009800   -0.808900   -1.066300
O      0.018500   -2.108200   -0.687200
C      0.041500   -2.117200    0.681800
C      0.017300   -0.842200    1.161900
N     -0.059900   -0.398700    2.491700
H      0.839100    1.953700    0.478700
H     -0.136200    1.921500   -0.991300
H     -0.919200    1.887500    0.596100
H     -0.025600   -0.626300   -2.128900
H      0.060400   -3.086900    1.149800
H      0.193100   -1.115500    3.159700
H      0.509500    0.421800    2.659700
