18
gdb_19848
C      0.069200    1.455800   -0.201300
C      1.305200    0.711000    0.202500
C     -0.038900   -0.042500    0.024600
C      0.527600   -0.678800   -1.214000
C      0.353000   -1.075300   -2.470100
C      1.653100   -0.818400   -3.240600
C      2.406200    0.237700   -2.357000
C      1.909200   -0.136100   -0.951400
H     -0.369800    2.069800    0.579900
H     -0.049100    1.857000   -1.203800
H      1.819600    0.938800    1.128300
H     -0.704200   -0.463200    0.767600
H     -0.545500   -1.460300   -2.937900
H      2.252300   -1.733800   -3.355900
H      1.460600   -0.448300   -4.253700
H      3.492100    0.201500   -2.484300
H      2.066200    1.242700   -2.631800
H      2.545900   -0.910500   -0.501100
