15
gdb_13030
N     -0.049500    1.195100   -0.358700
C     -0.014200   -0.015900   -0.044300
O      1.025900   -0.790300    0.436800
C      0.164600   -1.964500    0.537500
C     -1.024700   -1.151900   -0.019900
C     -2.248700   -0.990100    0.895500
C     -3.283700   -0.136000    0.328200
C     -4.142200    0.551300   -0.154400
H      0.857900    1.643300   -0.219600
H      0.536000   -2.780700   -0.086300
H      0.071200   -2.292600    1.576900
H     -1.339900   -1.457600   -1.019800
H     -2.666900   -1.986100    1.093300
H     -1.926200   -0.592200    1.866000
H     -4.891000    1.175000   -0.575800
