17
gdb_16890
C     -0.025200    1.441000    0.078800
C     -0.078500   -0.045300   -0.104300
N     -1.012100   -0.756500    0.378900
C     -1.021800   -2.157800    0.091000
C     -1.076000   -2.612400   -1.357400
C      0.185400   -2.788400   -0.556400
C      1.356300   -1.857200   -0.755000
O      0.968600   -0.479200   -0.869000
H      0.885700    1.727500    0.614900
H      0.004800    1.941000   -0.895000
H     -0.901100    1.773400    0.634600
H     -1.592500   -2.735200    0.810200
H     -1.658600   -3.495700   -1.594700
H     -1.102800   -1.833500   -2.112200
H      0.463800   -3.795500   -0.259700
H      2.047300   -1.952100    0.094300
H      1.914400   -2.075000   -1.671100
