22
gdb_11453
C      0.040700    1.585900    0.168200
C      0.024200    0.059900    0.041200
C      0.658700   -0.469300   -1.255900
C      0.749800   -2.019300   -1.307200
C      0.514700   -2.406900   -2.785400
C     -0.188900   -1.192900   -3.359400
C     -0.826300   -1.223500   -4.712600
C     -0.100400   -0.153400   -2.526700
H      1.064500    1.974800    0.127900
H     -0.525800    2.064800   -0.637200
H     -0.399900    1.909000    1.116700
H      0.559400   -0.378100    0.894100
H     -1.008600   -0.307500    0.105400
H      1.670300   -0.035100   -1.324800
H      1.693900   -2.399700   -0.907500
H     -0.053100   -2.438900   -0.689800
H      1.460100   -2.584800   -3.319400
H     -0.071300   -3.327800   -2.895100
H     -1.616900   -1.983500   -4.762700
H     -1.265700   -0.257600   -4.976600
H     -0.095900   -1.487900   -5.488700
H     -0.492300    0.835500   -2.743500
