10
gdb_342
O      0.008000    1.493000    0.146900
C      0.010600    0.112600    0.084900
C      0.685700   -0.390000   -1.184500
O      1.160000    0.384700   -1.976700
C      0.672300   -0.550400    1.307300
O      1.254600    0.050100    2.162900
H      0.509300    1.798200   -0.626000
H     -1.018800   -0.300300    0.064100
H      0.717000   -1.486100   -1.338700
H      0.542600   -1.657100    1.335800
