22
gdb_12286
C     -0.720000    1.767200    0.082700
O     -0.535600    0.526100    0.722700
C     -1.232600   -0.525100    0.108400
C     -0.721900   -1.086400   -1.247100
C     -1.008000   -2.513100   -0.697900
C     -0.061800   -3.647300   -1.063700
C     -1.012400   -1.919000    0.754200
C      0.296100   -2.044100    1.531800
H     -0.157400    2.513900    0.648600
H     -0.349800    1.756900   -0.953700
H     -1.781800    2.061300    0.063700
H     -2.305300   -0.279400    0.046100
H     -1.227300   -0.778100   -2.165800
H      0.352900   -0.907300   -1.354500
H     -2.031400   -2.802300   -0.962300
H      0.975100   -3.406400   -0.809500
H     -0.326400   -4.574600   -0.543000
H     -0.100000   -3.850800   -2.139800
H     -1.838200   -2.262000    1.385500
H      1.158400   -1.701000    0.953100
H      0.257000   -1.436200    2.439700
H      0.475300   -3.084100    1.823600
