18
gdb_16443
C     -0.028300    1.552800    0.054600
C      0.032300    0.052500    0.010000
C     -0.853200   -0.828000    0.846600
C      0.635500   -0.952100    1.017900
C      1.239200   -1.745900   -0.156400
O      0.431000   -2.816700   -0.714900
C     -0.065600   -1.945700   -1.766000
C      0.674300   -0.734400   -1.166100
H      0.931800    2.002500   -0.224000
H     -0.787900    1.940700   -0.635800
H     -0.284700    1.907100    1.058400
H     -1.358900   -0.310100    1.656000
H     -1.417400   -1.656200    0.431400
H      1.124500   -0.771700    1.968600
H      2.295800   -2.011900   -0.078100
H      0.311500   -2.260100   -2.747300
H     -1.161000   -1.908500   -1.795800
H      1.315800   -0.142100   -1.817700
