11
gdb_15462
O     -0.027400   -0.011200    0.004000
C      0.013700    1.179900    0.009600
O     -1.099800    1.978300    0.027700
C     -0.730200    3.352600    0.030000
C      0.765600    3.361600    0.011300
C      1.201800    2.096900   -0.000600
C      2.538000    1.622800   -0.019800
N      3.627300    1.233700   -0.035400
H     -1.161600    3.847600   -0.849400
H     -1.139300    3.838500    0.925000
H      1.362200    4.263600    0.008500
