17
gdb_18901
C      0.034200    1.573500   -0.024700
C      0.020400    0.075700   -0.047600
C      0.551300   -0.904400   -1.132400
C      0.852000   -1.871000   -0.051600
C      0.606500   -0.869500    1.092100
C     -0.829800   -1.157400    1.591800
C     -1.212700   -0.873200    0.131600
N     -0.490100   -1.900300   -0.732000
H      1.057700    1.963000   -0.073400
H     -0.521100    1.989000   -0.873700
H     -0.424100    1.958500    0.893500
H      0.913900   -0.797500   -2.148500
H      1.439000   -2.780900   -0.060900
H      1.431900   -0.589400    1.744500
H     -1.056900   -2.142200    2.008900
H     -1.193900   -0.370700    2.259900
H     -2.229200   -0.672400   -0.205700
