14
gdb_18831
N      0.018900    1.337400    0.101000
C     -0.016000   -0.033200    0.077000
N     -1.081700   -0.745300   -0.028200
C     -0.650700   -2.118000    0.016200
C      0.542200   -2.530200   -0.887800
O      1.260400   -1.385200   -1.325300
C      1.244100   -0.884500    0.065500
C      0.748600   -2.260000    0.573600
H      0.866500    1.774100   -0.224900
H     -0.824700    1.786100   -0.227800
H     -1.400200   -2.873000    0.220100
H      0.581300   -3.416200   -1.510300
H      2.203300   -0.455800    0.355400
H      1.091900   -2.851400    1.411700
