16
gdb_10153
C     -0.252300    1.674400   -0.271100
C     -0.368900    0.182800   -0.527900
O     -1.061300   -0.401200    0.570400
C     -1.221900   -1.800200    0.482200
C     -1.819700   -2.228500    1.834900
O     -1.547200   -3.252500    2.394100
C     -2.133500   -2.217200   -0.588700
C     -2.914100   -2.557400   -1.437500
H      0.279100    2.157900   -1.096000
H     -1.243700    2.127400   -0.183800
H      0.296500    1.865500    0.655400
H     -0.915200   -0.014400   -1.461000
H      0.627300   -0.278000   -0.623700
H     -0.254200   -2.312500    0.365900
H     -2.534100   -1.481600    2.239700
H     -3.593300   -2.863900   -2.194900
