16
gdb_5543
C      0.021100    0.993100    0.414100
O     -0.529900    0.228700   -0.661200
C      0.366600   -0.518100   -1.348300
C      0.818700   -1.802800   -1.189400
C      0.455100   -2.783400   -0.123900
N      1.700700   -2.105800   -2.210300
C      1.773800   -1.033800   -2.962000
N      0.988400   -0.026500   -2.483800
H      0.517100    0.343600    1.144200
H      0.743800    1.733300    0.047500
H     -0.815400    1.509000    0.889700
H     -0.341200   -2.383900    0.510300
H      0.104400   -3.723100   -0.563200
H      1.313900   -3.026300    0.512300
H      2.368100   -0.926100   -3.857300
H      0.818600    0.874100   -2.899200
