13
gdb_5196
O     -0.299400    0.056800    0.000600
C     -0.075200    1.249900    0.008200
N      1.164800    1.811300    0.000900
C      2.370300    1.108800   -0.015200
C      2.595800   -0.245200   -0.027900
N      3.974300   -0.352800   -0.040700
C      4.491300    0.902300   -0.035200
N      3.544400    1.816400   -0.019900
H     -0.871500    2.018100    0.020800
H      1.253900    2.816300    0.008100
H      1.929200   -1.086100   -0.028600
H      4.494700   -1.213400   -0.051900
H      5.552900    1.095600   -0.043000
