22
gdb_6138
C     -0.734200    1.077000   -1.119200
C     -0.004900   -0.174200   -0.661300
O      1.328700   -0.260600   -1.212500
C      1.946500   -0.333500    0.105700
C      2.672700   -1.663000    0.281900
C      2.892600    0.844600    0.310400
C      0.543300   -0.265300    0.789900
C      0.229200    0.838900    1.790800
H     -0.188500    1.985700   -0.851400
H     -0.842900    1.059100   -2.208300
H     -1.736300    1.127800   -0.679000
H     -0.594400   -1.056200   -0.949800
H      3.514700   -1.734800   -0.414400
H      3.062600   -1.762600    1.301200
H      1.997800   -2.501400    0.086800
H      2.388200    1.798600    0.141700
H      3.312400    0.845700    1.322200
H      3.721800    0.775200   -0.401100
H      0.291200   -1.228000    1.244700
H      0.454400    1.837300    1.407900
H     -0.831900    0.821200    2.062200
H      0.803500    0.701000    2.713300
