20
gdb_15423
C     -0.142800    1.457300   -0.510300
C     -0.023500    0.184300    0.336700
C     -1.335500   -0.563400    0.407100
O     -1.747100   -1.289600   -0.757600
C     -1.483800   -2.026100    0.441100
C     -0.329600   -2.993900    0.436000
O     -0.827400   -4.260700    0.064300
C      0.171000   -5.251500    0.032900
H      0.809100    1.994600   -0.551500
H     -0.441300    1.210100   -1.533300
H     -0.894600    2.138700   -0.097200
H      0.755500   -0.462900   -0.076800
H      0.283900    0.442000    1.358800
H     -2.145500    0.013800    0.861900
H     -2.376500   -2.437000    0.915900
H      0.447400   -2.658400   -0.266400
H      0.123700   -3.040300    1.443100
H      0.958400   -5.016800   -0.700900
H      0.649300   -5.381700    1.017300
H     -0.309100   -6.190200   -0.253400
