17
gdb_2469
O     -0.587300    1.147400    0.780100
C     -0.037700    0.042900    0.058500
C      0.868000   -0.854400    0.939400
C     -0.047400   -1.918100    1.527500
C     -1.343700   -1.465300    2.156400
C     -1.328300   -1.927700    0.719400
C     -1.211600   -0.864800   -0.364500
H      0.146400    1.659600    1.135200
H      0.510400    0.419400   -0.816600
H      1.632300   -1.331900    0.313800
H      1.398000   -0.259000    1.693600
H      0.400900   -2.841100    1.879000
H     -1.794500   -2.133700    2.882600
H     -1.484700   -0.409700    2.356200
H     -1.826500   -2.858600    0.471700
H     -2.116100   -0.264100   -0.500200
H     -0.981900   -1.341500   -1.324300
