17
gdb_19232
C     -0.147600    1.597700   -0.131600
C      0.049600    0.091300   -0.050400
C      0.750400   -0.642700   -1.191900
C      2.190600   -0.333500   -1.265000
N      1.748400   -1.327400   -0.268600
C      1.155100   -0.530100    0.884300
C      2.062100    0.356200    1.586000
C      2.808800    1.104600    2.160400
H      0.790000    2.121500   -0.334600
H     -0.856500    1.847000   -0.928600
H     -0.547400    1.989700    0.809200
H     -0.904400   -0.391700    0.178300
H      0.240900   -1.198800   -1.972700
H      2.754400   -0.786500   -2.074500
H      2.579400    0.620500   -0.920300
H      0.722700   -1.243600    1.590200
H      3.472100    1.752500    2.678300
