17
gdb_19266
C      0.017700    1.629000    0.218200
C      0.089100    0.113400    0.000600
C     -1.285900   -0.524300   -0.123100
N     -2.164200   -0.160200   -1.308400
C     -1.521700   -0.726000   -2.488300
C     -2.333300   -1.643200   -1.634300
C     -1.511800   -2.023300   -0.435900
O     -1.298500   -3.043200    0.152900
H      1.019500    2.060000    0.303100
H     -0.495000    2.121700   -0.613400
H     -0.531500    1.869600    1.134700
H      0.700200   -0.108700   -0.881100
H      0.594900   -0.369200    0.845600
H     -1.872000   -0.302900    0.778700
H     -1.975800   -0.413500   -3.423700
H     -0.441900   -0.839000   -2.528200
H     -3.268200   -2.081300   -1.963800
