16
gdb_18980
C     -0.040800    1.590700    0.009900
C      1.470100    1.254100   -0.005700
C      1.155800    0.150800    1.047900
O      2.070500   -0.916400    1.144900
C      2.053500   -1.694700   -0.026800
O      2.049100   -0.903900   -1.190200
C      1.136500    0.162200   -1.065200
C     -0.006800    0.042500    0.001300
H     -0.426600    2.059000    0.918700
H     -0.443000    2.068700   -0.886600
H      2.316800    1.939900   -0.009800
H      0.903700    0.474800    2.060100
H      2.959600   -2.304100   -0.038400
H      1.160500   -2.342900   -0.022200
H      0.866000    0.496900   -2.069100
H     -0.862200   -0.633500    0.005500
