15
gdb_19421
C     -0.003900    1.514000   -0.044200
N      1.243700    0.746200    0.051400
C     -0.048100    0.027400    0.010500
C     -0.460100   -0.781200    1.195100
C     -0.987600   -1.953800    0.826300
C     -1.035800   -2.051200   -0.665500
O     -1.864200   -1.033700   -1.283800
C     -0.458400   -0.800300   -1.185300
H     -0.253300    2.091900    0.841400
H     -0.268900    1.988900   -0.985300
H      1.694800    0.690700   -0.860300
H     -0.347600   -0.414700    2.208300
H     -1.365100   -2.721800    1.489000
H     -1.007300   -3.000100   -1.191500
H      0.080200   -0.715200   -2.127600
