17
gdb_18713
O     -0.041800    1.441300    0.097200
C      0.024500    0.024400   -0.019900
C      0.921700   -0.581500    1.080800
C      0.771000   -2.072100    1.242500
C     -0.373400   -2.702100    0.977100
C     -1.556800   -1.963000    0.469600
N     -2.003900   -0.775600    1.258900
C     -1.360800   -0.585300   -0.052100
H     -0.536900    1.624200    0.904700
H      0.489200   -0.156400   -0.996500
H      1.961900   -0.309600    0.876500
H      0.659300   -0.095200    2.030200
H      1.622300   -2.626000    1.628500
H     -0.471300   -3.773100    1.126100
H     -2.341400   -2.560500    0.013800
H     -3.011700   -0.672700    1.166400
H     -1.980300   -0.255700   -0.883400
