16
gdb_9230
C      0.246300    1.128100   -0.442300
O     -0.082700   -0.117300    0.171200
C     -1.397400   -0.410500    0.254500
N     -1.570300   -1.682900    0.757000
N     -2.285400    0.413100   -0.144400
C     -3.679800   -0.009500   -0.098100
C     -4.205900   -0.272900    1.248500
C     -4.602400   -0.512500    2.359400
H      1.336500    1.173100   -0.444600
H     -0.142800    1.173900   -1.462800
H     -0.171600    1.963600    0.125100
H     -0.744900   -2.069500    1.190500
H     -2.417000   -1.816400    1.293000
H     -4.283700    0.782300   -0.555000
H     -3.841600   -0.911500   -0.711200
H     -4.973300   -0.695100    3.337800
