11
gdb_21871
O     -0.007200    1.282300    0.007600
C     -0.054700   -0.044500    0.000900
N     -1.200400   -0.632000    0.004000
C     -1.174900   -2.016500   -0.003500
N     -2.148400   -2.830400   -0.002500
N      0.127000   -2.573000   -0.013400
N      1.259700   -1.906600   -0.016000
N      1.219400   -0.631700   -0.009100
H      0.928600    1.532200    0.003900
H     -3.023800   -2.309400    0.005000
H      0.217100   -3.580400   -0.019200
