11
gdb_5649
O     -0.015600    1.344300    0.009400
C      1.263600    1.843500   -0.000100
C      2.094700    0.774500   -0.013600
O      3.414500    0.420700   -0.028000
C      3.350300   -0.961800   -0.034700
N      2.187400   -1.511000   -0.026500
C      1.319200   -0.413700   -0.012500
C      0.014700   -0.020400    0.001900
H      1.360700    2.913400    0.004600
H      4.309500   -1.458300   -0.046400
H     -0.940400   -0.514800    0.008300
