15
gdb_21109
C     -0.024400    1.440500    0.030300
N     -0.009000   -0.005300    0.075800
N     -0.032800   -0.718300   -1.076800
N     -0.011800   -1.977500   -0.756800
C      0.026000   -2.093200    0.598800
C      0.027600   -0.833100    1.150300
C      0.061000   -0.361700    2.566500
O      0.077800   -1.505800    3.395700
H      0.876100    1.856500    0.492900
H     -0.056200    1.727800   -1.020600
H     -0.906100    1.838900    0.542100
H      0.048600   -3.046500    1.098600
H      0.951000    0.270600    2.730500
H     -0.817900    0.274300    2.771200
H      0.112800   -1.214000    4.311100
