18
gdb_12828
O     -0.049100    1.375700    0.109600
C      0.026100   -0.022100   -0.017000
C     -0.531400   -0.611900   -1.294500
C     -1.310600   -0.704800    0.004300
O     -1.463900   -1.965400    0.588600
C     -0.518600   -2.270800    1.605400
C      0.912700   -2.128800    1.091700
C      1.187700   -0.661200    0.725600
H      0.622600    1.758800   -0.466100
H     -0.882600    0.085600   -2.047000
H     -0.108600   -1.537000   -1.671800
H     -2.183400   -0.066300    0.115600
H     -0.670000   -1.620100    2.482300
H     -0.736100   -3.299600    1.905700
H      1.622900   -2.464200    1.855100
H      1.040000   -2.784600    0.222400
H      2.119300   -0.564600    0.153500
H      1.317900   -0.081500    1.647400
