16
gdb_15291
O     -0.177500    0.136900   -0.636700
C     -0.050000    1.217800   -0.116000
C      1.241300    1.924700    0.032400
C      1.249000    3.451900    0.003800
C      1.569700    2.751700    1.276700
C      0.641000    2.818800    2.484900
C      0.968500    3.943000    3.356500
C      1.260600    4.870800    4.062000
H     -0.936700    1.767700    0.277500
H      2.071500    1.404300   -0.432600
H      2.038900    3.934500   -0.559400
H      0.281700    3.940100   -0.071600
H      2.619700    2.715200    1.550700
H     -0.403100    2.904500    2.162900
H      0.707600    1.883000    3.054700
H      1.508000    5.689700    4.691000
