16
gdb_1103
C     -0.014300    1.544100    0.005300
C      0.008400    0.003700    0.024500
C      0.734400   -0.537200    1.269800
O     -1.317900   -0.493400   -0.018000
C      0.681400   -0.542600   -1.262500
N      1.994900   -0.179000   -1.420700
O      0.113100   -1.257100   -2.055600
H      0.987100    1.985800    0.023000
H     -0.537900    1.901700   -0.885000
H     -0.546500    1.915100    0.889100
H      0.235400   -0.175800    2.176900
H      0.705500   -1.629700    1.272400
H      1.779500   -0.218200    1.316800
H     -1.759900   -0.192600    0.783000
H      2.426900    0.540200   -0.868800
H      2.431300   -0.428600   -2.293400
