18
gdb_11357
C     -0.011300    1.352500    0.083500
O     -0.129100   -0.060500   -0.101400
C      0.537700   -0.551200   -1.148500
N      1.254700    0.110000   -1.972900
C      1.762200   -0.879300   -2.941900
C      3.236500   -0.663900   -3.264400
C      1.452000   -2.268700   -2.303400
N      0.388700   -1.916800   -1.355400
H      1.034700    1.636000    0.228400
H     -0.400200    1.887400   -0.786900
H     -0.599200    1.585500    0.971900
H      1.182500   -0.775600   -3.871300
H      3.843600   -0.739600   -2.356200
H      3.594200   -1.409600   -3.983200
H      3.392000    0.329700   -3.693100
H      1.113100   -3.009900   -3.031900
H      2.338800   -2.668900   -1.789100
H      0.271400   -2.483700   -0.527300
