17
gdb_11927
C      0.013300    1.542800    0.008600
C     -0.052100    0.048600    0.075500
C     -1.319900   -0.817400   -0.025200
C     -0.693900   -1.825800    0.990000
C      0.561500   -0.934500    1.066800
N      1.126900   -0.729700   -0.275000
C      1.373000   -0.730400    2.220200
C      2.020600   -0.568000    3.221300
H      1.000800    1.892200    0.319500
H     -0.163800    1.893100   -1.015400
H     -0.742700    1.999100    0.655800
H     -2.209900   -0.326500    0.376000
H     -1.551300   -1.192400   -1.028100
H     -1.243900   -1.867500    1.931900
H     -0.513900   -2.847900    0.640900
H      0.925700   -1.514400   -0.894300
H      2.606000   -0.423000    4.095100
