19
gdb_10499
C      0.121400    1.453400    0.315900
C     -0.027700    0.010400   -0.177700
C     -1.453300   -0.519900   -0.064800
C     -1.651300   -1.970000    0.236000
N     -1.935700   -0.966900    1.270400
C     -2.432000    0.170400   -0.873100
C     -3.218100    0.750800   -1.577600
C     -4.185500    1.444500   -2.415600
H      1.154300    1.797600    0.208400
H     -0.524700    2.125800   -0.255600
H     -0.156100    1.542900    1.371500
H      0.290900   -0.056700   -1.224800
H      0.633700   -0.653200    0.394200
H     -2.526200   -2.480200   -0.155000
H     -0.761900   -2.589200    0.327400
H     -1.158000   -0.922800    1.926600
H     -5.178000    0.987700   -2.333400
H     -4.281500    2.497700   -2.128800
H     -3.893900    1.413600   -3.471400
