14
gdb_2069
N     -0.090000    1.293100   -0.232300
C     -0.007000    0.069100    0.070700
C     -1.262100   -0.781300    0.148000
O     -1.155400   -1.892100    1.018300
C      0.003000   -2.644400    0.716000
C      1.231000   -1.792400    0.971600
O      1.190800   -0.564100    0.226900
H      0.843400    1.703900   -0.305900
H     -2.086000   -0.159500    0.497800
H     -1.498100   -1.121700   -0.875100
H      0.004800   -3.520300    1.371000
H     -0.017400   -2.988300   -0.331500
H      1.298600   -1.552800    2.040300
H      2.148700   -2.301300    0.664400
