8
gdb_59
N     -0.041300    1.336500    0.008800
C      0.065700   -0.022500    0.001100
O      1.124200   -0.617800   -0.011600
C     -1.222800   -0.708700    0.009700
C     -2.263200   -1.311000    0.016400
H      0.804100    1.883100    0.003700
H     -0.934200    1.797200    0.019500
H     -3.175000   -1.857000    0.022300
