19
gdb_7632
C     -0.029500    1.570100    0.074600
C      0.061400    0.037100    0.020900
C      0.973600   -0.492600    1.134800
C     -1.346900   -0.573800    0.030500
C     -1.521500   -2.122900    0.077200
C     -2.320700   -1.885500    1.381300
O     -2.943200   -2.561300    2.154700
N     -2.070800   -0.533500    1.315300
H      0.961500    2.026300   -0.009800
H     -0.651700    1.965800   -0.735400
H     -0.462900    1.903900    1.025100
H      0.500100   -0.240200   -0.948400
H      0.555500   -0.273100    2.122100
H      1.124800   -1.573800    1.069200
H      1.958900   -0.020500    1.074400
H     -1.931100   -0.123700   -0.782700
H     -2.118800   -2.547800   -0.731400
H     -0.608900   -2.706600    0.201500
H     -2.485500    0.230500    1.829000
