20
gdb_9148
C      0.307200    1.270900    0.583200
C     -0.417700    0.276900   -0.342600
C      0.397200   -0.152300   -1.474700
C      1.099400   -0.481100   -2.397800
C      1.916300   -0.938900   -3.525000
O      2.648900   -2.122100   -3.198800
C      1.066100   -1.127500   -4.797700
C      1.906400   -1.540000   -6.007000
H      1.217200    0.825600    0.993900
H      0.591500    2.173900    0.036300
H     -0.342200    1.560900    1.414600
H     -0.726000   -0.604200    0.235000
H     -1.345900    0.730000   -0.714200
H      2.691700   -0.190500   -3.736200
H      2.025100   -2.739800   -2.801500
H      0.298200   -1.883100   -4.587600
H      0.532200   -0.191100   -4.996800
H      2.631000   -0.760500   -6.268400
H      2.464800   -2.454500   -5.792300
H      1.274900   -1.715800   -6.882800
