15
gdb_8698
O      0.926000   -0.084400   -0.367600
C     -0.205900    0.547200    0.176800
C     -1.440300   -0.371000    0.054600
O     -1.582300   -0.672500   -1.321200
C     -1.262600   -1.688600    0.842000
O     -2.242200   -2.631900    0.436700
C     -2.651600    0.323100    0.555100
N     -3.603800    0.829400    0.971400
H      0.683100   -0.336200   -1.267900
H      0.002500    0.755100    1.230500
H     -0.432400    1.499700   -0.322800
H     -2.052400   -1.520100   -1.354800
H     -0.289800   -2.104300    0.572600
H     -1.286400   -1.500300    1.921900
H     -3.083400   -2.390300    0.842500
