14
gdb_5913
C      0.076500    1.576000   -0.006000
C      0.006900    0.045800    0.006600
O      0.685600   -0.376300    1.171500
C     -1.465500   -0.470000   -0.006400
C     -2.215900   -0.015300    1.160300
N     -2.817200    0.348000    2.076900
C      0.671200   -0.505400   -1.200400
N      1.182400   -0.967700   -2.127700
H      1.120500    1.893100    0.004800
H     -0.410900    1.980700   -0.895700
H     -0.420600    1.960600    0.887300
H      0.742900   -1.339100    1.180600
H     -1.969000   -0.133100   -0.918500
H     -1.466800   -1.565400   -0.029000
