16
gdb_284
C      0.012600    1.482500    0.058900
C     -0.024100   -0.058900   -0.018500
C     -1.461500   -0.585100    0.020200
C      0.692300   -0.493800   -1.301700
C      2.191700   -0.713700   -1.202000
O      0.095000   -0.640200   -2.343700
H      1.035200    1.872600    0.039400
H     -0.532400    1.918100   -0.784500
H     -0.458700    1.826600    0.984500
H      0.540000   -0.453200    0.836700
H     -2.008600   -0.253400   -0.865600
H     -1.484900   -1.679000    0.032600
H     -1.981600   -0.222500    0.912100
H      2.681500    0.111500   -0.674500
H      2.384300   -1.620600   -0.615700
H      2.622200   -0.832500   -2.197100
