17
gdb_19929
C     -0.004000    1.489000    0.216500
C      1.253400    0.721900    0.034900
C      1.995900    0.334500    1.301900
O      1.927200    1.289400    2.393400
C      1.136600    0.387600    3.195900
C      1.075400   -0.657100    2.062500
C     -0.205600   -0.782200    1.210100
N     -0.065200    0.044200   -0.010900
H     -0.197900    1.884100    1.210200
H     -0.393400    2.093900   -0.597600
H      1.806600    0.768400   -0.898400
H      3.031200    0.039200    1.104700
H      1.682300    0.065200    4.091200
H      0.179800    0.830300    3.502300
H      1.498400   -1.629800    2.315800
H     -0.345600   -1.818000    0.885900
H     -1.105800   -0.489000    1.762000
