15
gdb_6629
C     -0.053200    1.444700   -0.019200
C     -0.047600   -0.009500    0.029800
C     -0.047500   -1.211900    0.068800
C     -0.002800   -2.662600    0.123900
O     -1.331300   -3.178800   -0.093900
C     -1.414900   -4.531800   -0.032700
N     -2.693500   -4.929100   -0.303000
O     -0.484300   -5.268700    0.197800
H      0.615700    1.820100   -0.801300
H     -1.058400    1.824300   -0.232900
H      0.269200    1.878000    0.933800
H      0.669500   -3.071100   -0.638800
H      0.365000   -3.016100    1.093300
H     -3.431500   -4.246700   -0.268100
H     -2.918200   -5.883500   -0.081800
