16
gdb_19920
O      0.069700    1.429800    0.327100
C      0.156300    0.062300   -0.066600
C     -1.237100   -0.573000   -0.119300
C     -1.899200   -1.328200   -1.244300
C     -0.969100   -2.401700   -1.893000
O      0.323100   -2.364900   -1.263300
C     -0.753700   -3.047900   -0.605300
C     -1.660000   -2.005600    0.111700
H     -0.295800    1.922900   -0.413900
H      0.679900   -0.043400   -1.020100
H      0.766400   -0.427200    0.697100
H     -1.950400    0.093000    0.366000
H     -2.843900   -1.036200   -1.685400
H     -1.024700   -2.793700   -2.901000
H     -0.599800   -4.083800   -0.329600
H     -2.395000   -2.281100    0.857100
