13
gdb_11148
O     -0.014000   -0.010000    0.003000
C     -0.039800    1.196000    0.009900
C     -1.250500    2.140500    0.031700
C     -0.632800    3.527000    0.031000
C      0.708200    3.376900    0.011500
N      1.070600    2.033300   -0.000800
C     -1.359500    4.730500    0.047700
C     -2.025400    5.736100    0.062500
H     -1.884700    1.951100   -0.840600
H     -1.860700    1.941300    0.918800
H      1.468200    4.144100    0.005200
H      2.013300    1.680800   -0.015600
H     -2.600600    6.628200    0.075400
