13
gdb_18844
O     -0.008900    0.049800    0.015200
C     -0.027800    1.243400    0.095300
C     -1.107200    2.271200    0.015500
C     -0.716700    3.557400    0.708900
C      0.313400    3.527300    1.795700
C      1.379800    2.872600    1.338800
C      1.053000    2.352200   -0.038200
N     -0.074200    3.253500   -0.572300
H     -2.093500    2.119500   -0.407700
H     -1.469300    4.340900    0.678600
H      0.169500    3.966400    2.773000
H      2.283700    2.620500    1.876200
H      1.868500    2.171400   -0.736300
