19
gdb_6953
C     -0.035000    1.583200   -0.045300
C      0.033600    0.054600   -0.037900
C     -1.383700   -0.546100    0.054800
C      0.831500   -0.544900   -1.218100
C      1.528300   -1.792000   -0.631300
N      1.664000   -1.434500    0.769700
C      0.822100   -0.443000    1.192700
O      0.701200   -0.047500    2.333100
H      0.962300    2.025800   -0.135100
H     -0.644400    1.944300   -0.880700
H     -0.475700    1.940500    0.889400
H     -1.996700   -0.207700   -0.787300
H     -1.362700   -1.641200    0.037500
H     -1.868300   -0.234900    0.984400
H      0.204300   -0.790700   -2.078700
H      1.591000    0.169300   -1.551500
H      0.919300   -2.698100   -0.762200
H      2.503000   -1.978800   -1.092900
H      2.164000   -1.994300    1.442300
