16
gdb_17989
N      0.114800   -1.146400    0.337300
C      0.044800   -0.004800    0.163100
C     -0.011900    1.432900   -0.021100
C     -0.359900    2.315500    1.225700
N      0.885200    3.120200    1.064100
C      2.017400    2.617200    1.910800
C      2.520600    1.685700    0.772600
C      1.338200    2.216700   -0.063600
H     -0.645100    1.659200   -0.881800
H     -1.268800    2.910000    1.104500
H     -0.420600    1.765400    2.170000
H      2.704500    3.424100    2.179300
H      1.692400    2.120100    2.830900
H      3.500800    1.943200    0.367900
H      2.500500    0.613900    0.981800
H      1.570900    2.677600   -1.026500
