16
gdb_19204
C     -0.008000    1.538800    0.016600
O      1.332500    2.033000    0.029600
C      2.290000    0.955800    0.021900
C      2.020800    0.107900    1.278300
O      0.694400   -0.418500    1.206000
C      0.028000   -0.000100   -0.001600
C      0.832300   -0.432400   -1.203300
C      2.063100    0.081100   -1.186900
H     -0.521900    1.880800    0.924100
H     -0.536800    1.932400   -0.861700
H      3.274700    1.423100    0.056300
H      2.740400   -0.717600    1.360000
H      2.103600    0.741600    2.170500
H     -0.975100   -0.425800    0.040800
H      0.425800   -1.077300   -1.973500
H      2.832000   -0.094500   -1.930100
