17
gdb_18915
C     -0.005000    1.524800    0.088300
C     -0.000400    0.031100   -0.020200
C      1.115500   -0.843500   -0.547400
C      0.521100   -1.932700   -1.419400
N     -0.782500   -2.155300   -0.777800
C     -0.651200   -1.918900    0.671700
C      0.613000   -1.036900    0.869400
C     -1.254900   -0.882600   -0.207500
H      0.990600    1.904500    0.339600
H     -0.310200    1.992000   -0.856100
H     -0.696100    1.868700    0.866400
H      2.098100   -0.420200   -0.719800
H      0.371600   -1.619500   -2.458000
H      1.102400   -2.860500   -1.407800
H     -1.087900   -2.618200    1.372900
H      1.210700   -0.936400    1.764300
H     -2.278900   -0.565000   -0.362900
