17
gdb_5756
C      0.434100    1.573300    0.152200
C      1.151900    0.379500   -0.417600
C     -0.261500    0.236100    0.122900
C     -0.517000   -0.493600    1.382500
C     -0.835200   -0.056400    2.651600
C     -1.003600   -1.199900    3.481600
C     -0.787100   -2.308600    2.698200
N     -0.495600   -1.870800    1.430800
H      0.763100    1.942600    1.116400
H      0.086200    2.341500   -0.528800
H      1.295100    0.325900   -1.491300
H      1.956500   -0.050000    0.168600
H     -1.031700    0.132000   -0.639700
H     -0.946100    0.976900    2.943100
H     -1.255600   -1.206700    4.531000
H     -0.811900   -3.361100    2.931400
H     -0.265800   -2.460600    0.650000
