17
gdb_3017
C      0.041600    1.501600    0.151200
C      0.022600   -0.018200   -0.019600
C      0.679500   -0.477100   -1.331300
O      2.021200   -0.031200   -1.435300
C      0.622300   -1.991700   -1.470800
C      1.589400   -2.726300   -2.289700
O      1.722700   -2.680200   -0.858500
H      1.066100    1.878100    0.098500
H     -0.535500    1.994600   -0.639400
H     -0.388100    1.797600    1.112700
H      0.546900   -0.500600    0.816200
H     -1.010000   -0.390700    0.005700
H      0.143200   -0.025700   -2.177400
H      2.537100   -0.637400   -0.884800
H     -0.350400   -2.447400   -1.282300
H      1.324500   -3.701300   -2.694000
H      2.345200   -2.168800   -2.836800
