17
gdb_7250
C     -0.116100    1.435100    0.088800
N     -0.037000   -0.014600    0.005300
C      0.021800   -0.701200    1.280300
C     -0.024400   -0.603500   -1.235500
O     -0.076900    0.040100   -2.264900
C      0.060900   -2.145900   -1.258500
C      0.069300   -2.690900   -2.606400
C      0.079100   -3.185800   -3.699800
H      0.760000    1.839500    0.611500
H     -0.154800    1.835600   -0.922300
H     -1.014300    1.741000    0.640300
H     -0.868400   -0.475300    1.882800
H      0.079500   -1.780300    1.157400
H      0.900800   -0.377500    1.853900
H      0.965000   -2.466600   -0.725400
H     -0.784500   -2.563800   -0.697000
H      0.086400   -3.601700   -4.676500
