15
gdb_1989
N      0.142200    0.182600   -1.003500
C     -0.003600    0.029900    0.343800
O      0.459500    0.811400    1.150500
C     -0.830100   -1.186200    0.789100
C     -0.979800   -2.285700   -0.233200
C     -2.208700   -3.104400   -0.336300
N     -1.899700   -2.108200   -1.382500
H      0.673200    0.972500   -1.331300
H     -0.224800   -0.477200   -1.669100
H     -0.358200   -1.558200    1.703700
H     -1.818300   -0.809700    1.085600
H     -0.045200   -2.761500   -0.525500
H     -2.146700   -4.140000   -0.657000
H     -3.024200   -2.890400    0.349500
H     -2.473900   -1.282000   -1.222300
