14
gdb_18665
O     -0.006900   -0.029800   -0.208500
C      0.028200    1.165100   -0.007400
N     -1.146000    1.899500    0.176700
C     -1.217800    3.283400    0.063800
N     -0.231900    4.076800   -0.052800
C      1.077300    3.518100   -0.000100
C      1.542700    2.848400    1.256200
C      1.260000    1.985800    0.039900
H     -1.996500    1.357200    0.119000
H     -2.232700    3.676900    0.067900
H      1.813100    4.087300   -0.557500
H      2.583900    2.958400    1.535100
H      0.849100    2.801700    2.088400
H      2.103800    1.527200   -0.460800
