13
gdb_16781
N     -0.126000    1.299100   -0.051700
C     -0.030200    0.037300    0.012600
N      1.104600   -0.776100    0.107900
C      0.864700   -2.142800   -0.027000
O      1.706300   -3.000800   -0.100400
C     -0.639800   -2.281700   -0.085500
N     -1.257000   -1.764200    1.161600
C     -1.195400   -0.905300   -0.044800
H      0.786300    1.756700   -0.007100
H      2.040800   -0.422100    0.235500
H     -1.078000   -3.113400   -0.621000
H     -2.198800   -2.147100    1.231100
H     -2.100700   -0.594500   -0.548300
