18
gdb_10903
C     -0.096400    1.631800   -0.042700
C      0.053300    0.115700   -0.067400
C      0.748000   -0.598200   -1.243300
C      2.190900   -0.231100   -1.290500
C      1.757900   -1.298300   -0.289200
C      2.338400   -2.682900   -0.257000
C      1.080900   -0.601000    0.856600
O      1.166800   -0.706500    2.049100
H      0.839200    2.139800   -0.294400
H     -0.860200    1.965200   -0.752900
H     -0.397100    1.963100    0.956200
H     -0.916400   -0.354800    0.142300
H      0.236300   -1.057500   -2.079800
H      2.761700   -0.631700   -2.123100
H      2.534900    0.743200   -0.956100
H      2.558400   -3.042500   -1.267100
H      3.272700   -2.699600    0.314200
H      1.649800   -3.390700    0.215500
