16
gdb_18782
O      0.028100    0.025800   -0.104400
C     -0.001800    1.219000    0.004200
C     -1.144600    2.240700    0.035000
C     -1.294000    2.899000    1.440300
C     -0.032100    3.760200    1.187200
C      1.291000    2.972000    1.349800
C      1.081100    2.303500   -0.042900
C     -0.073300    3.342700   -0.326900
H     -2.048000    2.004100   -0.527200
H     -2.191100    3.523800    1.459300
H     -1.306800    2.240700    2.314500
H     -0.048400    4.788100    1.549200
H      2.150700    3.646400    1.307300
H      1.401900    2.317100    2.219700
H      1.954900    2.117100   -0.667300
H     -0.122000    3.998500   -1.190900
