22
gdb_7487
C      0.028500    1.603100    0.105600
C     -0.012600    0.074500    0.007300
C     -1.425300   -0.456600   -0.247900
C     -2.059600   -0.003800   -1.559000
O     -3.287600   -0.705700   -1.704300
C      1.118000   -0.480900   -0.924100
C      1.993800   -0.754200    0.327200
C      0.730000   -0.590600    1.212800
H      1.035500    1.955100    0.354200
H     -0.259200    2.080600   -0.837200
H     -0.650800    1.963700    0.886900
H     -1.402300   -1.553300   -0.258100
H     -2.087300   -0.168300    0.579500
H     -2.229300    1.083500   -1.550500
H     -1.377800   -0.221000   -2.397900
H     -3.710900   -0.404100   -2.513300
H      0.815200   -1.406200   -1.423800
H      1.519000    0.202100   -1.678700
H      2.508500   -1.716500    0.371000
H      2.732600    0.032700    0.500800
H      0.825600    0.010200    2.122000
H      0.286400   -1.553900    1.482100
