16
gdb_5693
C      0.001800    1.395000   -0.152500
C      1.465300    1.896600    0.117400
C      2.224800    0.602100   -0.001900
C      1.328200   -0.428700    0.013000
N     -0.041700   -0.092600    0.043300
N      1.988800   -1.617900   -0.056100
C      3.350200   -1.343000   -0.108000
C      3.524000    0.024900   -0.076700
H     -0.745300    1.877600    0.482200
H     -0.262800    1.599000   -1.195100
H      1.744500    2.660300   -0.615400
H      1.569700    2.356200    1.110900
H     -0.464500   -0.318600    0.941000
H      1.573000   -2.530300   -0.118000
H      4.067700   -2.144800   -0.169900
H      4.477400    0.530800   -0.104400
