17
gdb_3098
C      0.029900    1.582000   -0.167700
C      0.035200    0.076900    0.000700
C      1.331100   -0.704100    0.024200
O      2.557000   -0.019000    0.087300
C      0.500700   -0.620600    1.274000
C      1.056900    0.131600    2.469900
O      2.206400   -0.503200    3.008500
H      0.971800    2.029600    0.157000
H     -0.114600    1.846100   -1.221500
H     -0.780900    2.048800    0.401200
H     -0.784500   -0.423700   -0.509100
H      1.379200   -1.653200   -0.507900
H      2.770400    0.319300   -0.788400
H     -0.029300   -1.531400    1.537600
H      1.270900    1.175600    2.209500
H      0.313500    0.147300    3.273800
H      2.870000   -0.479400    2.309000
