19
gdb_11108
C      0.074000    1.638600    0.062300
C      0.426300    0.153600    0.186300
C      0.607600   -0.520200   -1.159300
C      0.648700   -2.063700   -1.208700
C     -0.624200   -1.918000   -2.011900
O     -0.637000   -0.531100   -1.943500
N     -1.413700   -2.711500   -2.567900
C     -2.565900   -2.180400   -3.283100
H      0.871100    2.194300   -0.443800
H     -0.844500    1.766700   -0.517100
H     -0.076500    2.091000    1.046600
H      1.356900    0.026900    0.755100
H     -0.358100   -0.376100    0.741000
H      1.392300   -0.029200   -1.745600
H      1.485300   -2.510100   -1.748600
H      0.528100   -2.564900   -0.245700
H     -2.633800   -1.086200   -3.276700
H     -2.531200   -2.523800   -4.323000
H     -3.481500   -2.591200   -2.843100
