17
gdb_1285
C      0.010400    1.367100    0.090000
O      0.132600   -0.034500    0.065100
C      0.622400   -0.516600   -1.168000
C      0.709800   -2.032100   -1.072800
C      1.227500   -2.684500   -2.344700
C      1.342400   -4.198400   -2.325500
O      1.531000   -2.032000   -3.318500
H      0.980000    1.865500   -0.068800
H     -0.689200    1.730800   -0.679300
H     -0.372300    1.645600    1.075000
H     -0.041000   -0.224400   -1.996800
H      1.612900   -0.090900   -1.392100
H      1.358000   -2.319600   -0.234500
H     -0.275900   -2.451400   -0.831800
H      0.365900   -4.652700   -2.123500
H      1.721800   -4.553200   -3.284400
H      2.013300   -4.519900   -1.520900
