16
gdb_13699
C     -0.434300    1.428000    0.229800
C      0.039400    0.007100    0.084000
O      1.391200   -0.196800   -0.315600
C      1.014400   -0.622100    1.007800
C      1.582100    0.081400    2.124700
C      2.067300    0.646100    3.073200
C      2.608000    1.342400    4.239700
O      1.783400    2.402200    4.703200
H      0.286900    2.024200    0.792500
H     -0.571700    1.882100   -0.756800
H     -1.397700    1.455400    0.750000
H     -0.665600   -0.675100   -0.396300
H      0.971000   -1.705500    1.120400
H      2.808500    0.609100    5.037300
H      3.569500    1.802200    3.986100
H      0.902700    2.040900    4.848400
