22
gdb_6713
C     -0.097000    1.588300   -0.031900
C      0.014100    0.057600   -0.008000
C      0.983700   -0.394700    1.093300
C     -1.381300   -0.577700    0.135700
C     -1.418400   -2.103000   -0.018900
C     -2.850700   -2.665400    0.031100
C     -2.865400   -4.175200   -0.015200
O     -3.452900   -4.840200   -0.828900
H      0.883300    2.054800   -0.174200
H     -0.752100    1.929600   -0.840300
H     -0.509000    1.965700    0.911900
H      0.427000   -0.264300   -0.975400
H      0.601700   -0.122100    2.084900
H      1.146600   -1.476400    1.083900
H      1.960800    0.084600    0.973200
H     -1.802900   -0.302200    1.113400
H     -2.047200   -0.133700   -0.616100
H     -0.954100   -2.386400   -0.972500
H     -0.820600   -2.578000    0.768600
H     -3.321200   -2.359900    0.977700
H     -3.464000   -2.283500   -0.790400
H     -2.260000   -4.660400    0.788100
