17
gdb_17211
C      0.261900    1.562700   -0.081700
N      1.346000    0.577900    0.122000
C     -0.031800    0.114800   -0.018200
C     -0.733600   -0.721900    1.066900
C     -1.345500   -1.592200   -0.056300
O     -2.610300   -1.088800   -0.535600
C     -1.978400   -0.402500   -1.640700
C     -0.573200   -0.782500   -1.142200
H      0.057500    2.198200    0.775900
H      0.181800    2.063100   -1.044300
H      1.853800    0.438700   -0.749200
H     -0.018200   -1.256100    1.699000
H     -1.469900   -0.212000    1.692300
H     -1.340700   -2.679200    0.051900
H     -2.257100   -0.857200   -2.600200
H     -2.220200    0.667200   -1.665100
H      0.140200   -1.202700   -1.852300
