12
gdb_5142
N     -0.012400   -1.156300    0.506300
C      0.004300   -0.026300    0.269200
C      0.022300    1.410900   -0.029100
C      1.399100    1.978400   -0.127200
C      2.128100    2.539300   -1.121300
N      3.370300    2.915200   -0.624700
C      3.329100    2.566200    0.617900
O      2.166600    1.991300    1.006400
H     -0.493900    1.579800   -0.979200
H     -0.555900    1.930200    0.745300
H      1.854400    2.699100   -2.152200
H      4.091300    2.673500    1.373400
