17
gdb_11900
C     -0.147800    1.436200    0.111200
C      0.017800   -0.036000   -0.045500
N     -0.182700   -0.712300   -1.103200
C      0.111400   -2.111000   -0.766200
C      0.520200   -2.069400    0.710700
C      0.158100   -3.077800    1.751300
C      1.610400   -2.870600    1.343400
O      0.427200   -0.689800    1.080700
H      0.798400    1.894400    0.415900
H     -0.477500    1.869200   -0.832500
H     -0.881900    1.654600    0.893100
H     -0.774100   -2.734500   -0.939100
H      0.910500   -2.494300   -1.412200
H     -0.142600   -2.705300    2.724100
H     -0.351400   -3.980700    1.429500
H      2.097900   -3.631200    0.741700
H      2.257200   -2.362900    2.050200
