17
gdb_10747
C      0.166600    1.432500    0.090700
C     -0.036500   -0.085500    0.009700
O      0.532300   -0.623400    1.197600
C     -1.489100   -0.394000   -0.020200
N     -2.613200   -0.661900   -0.042300
C      0.608100   -0.657100   -1.256400
C      2.087800   -0.926800   -1.287400
C      1.108500   -2.074900   -1.317500
H      1.238400    1.637100    0.144000
H     -0.247000    1.924700   -0.792500
H     -0.318500    1.832600    0.983300
H      0.243400   -1.537900    1.291600
H      0.159700   -0.268100   -2.165600
H      2.634800   -0.679800   -2.189900
H      2.635700   -0.778400   -0.364100
H      1.044000   -2.690700   -0.426700
H      0.964300   -2.622900   -2.241300
