14
gdb_20366
C     -0.117300    1.446700   -0.081100
C      1.272800    0.915900    0.093000
C      0.103000   -0.049500    0.044700
C     -0.315000   -0.742300    1.268700
N     -0.794200   -1.983800    1.295100
N     -1.017200   -2.142700    2.595700
N     -0.709800   -1.097500    3.344900
N     -0.259900   -0.193400    2.515600
H     -0.575600    1.942600    0.766500
H     -0.415600    1.823000   -1.052900
H      1.945200    0.921500   -0.757200
H      1.747000    1.055700    1.057400
H     -0.013600   -0.648300   -0.850400
H     -1.392100   -2.993600    2.987000
