17
gdb_7866
N      0.113100    0.135400    0.485600
H      1.020500   -0.659100    1.764600
H      0.712000    0.582000   -0.202800
H     -0.468300   -0.534100   -0.010300
C     -0.700200    1.117100    1.179200
C     -1.293500    0.713300    2.505000
C     -0.151100    1.701000    2.460700
C      1.254700    1.407200    2.989800
C      1.558000   -0.008700    3.498400
O      1.960300   -0.213000    4.614800
O      1.383500   -1.007200    2.623500
H     -1.293200    1.783200    0.554100
H     -2.284100    1.075100    2.754600
H     -1.078400   -0.290300    2.853700
H     -0.437200    2.735700    2.624700
H      1.996700    1.652000    2.216900
H      1.454600    2.064600    3.837400
