16
gdb_19681
O     -0.724300    0.911900    0.627400
C      0.067000    1.079000   -0.267100
C      1.261300    1.996800   -0.216000
C      1.401800    3.153500   -1.218400
C      0.719500    4.385500   -0.600900
C      0.148800    3.970500    0.754000
C      1.413100    3.074700    0.892300
C      2.117200    3.996700   -0.189100
H     -0.038700    0.524900   -1.231400
H      2.161300    1.369100   -0.279700
H      1.603900    3.092100   -2.279800
H      0.422500    5.214700   -1.230400
H      0.187000    4.804500    1.460000
H     -0.826900    3.482300    0.806700
H      1.805600    2.807000    1.869800
H      3.065400    4.512300   -0.224600
