13
gdb_4685
C     -0.001400    1.476600    0.057900
C     -0.003600   -0.012100   -0.026500
N     -0.061500   -0.723000   -1.140500
C     -0.039000   -2.031900   -0.758200
C      0.033800   -2.133600    0.615600
N      0.055700   -0.821800    1.065400
C      0.081400   -3.243500    1.481800
N      0.121000   -4.150300    2.203300
H      0.910200    1.852700    0.535100
H     -0.057400    1.881900   -0.952600
H     -0.856600    1.849800    0.631900
H     -0.075500   -2.840600   -1.471500
H      0.106500   -0.537200    2.030300
