19
gdb_15343
C     -0.045400    1.513100   -0.463300
C      0.002700    0.125100    0.187200
C     -1.362200   -0.534000    0.233500
C     -1.880500   -1.348700   -0.928700
C     -1.573600   -2.023400    0.385400
C     -0.409100   -2.996300    0.510100
C     -0.782400   -4.355700    0.113100
N     -1.090100   -5.425400   -0.197100
H      0.946400    1.974500   -0.485000
H     -0.413700    1.451600   -1.492500
H     -0.713700    2.183300    0.088100
H      0.709700   -0.503500   -0.367000
H      0.403700    0.213500    1.205600
H     -2.108700    0.069900    0.745300
H     -2.916000   -1.250000   -1.233700
H     -1.193800   -1.530200   -1.750800
H     -2.432000   -2.317500    0.981800
H      0.435200   -2.681400   -0.110900
H     -0.041600   -3.030500    1.543100
