15
gdb_12456
O     -0.037300   -0.107200    0.002500
C     -0.013600    1.106400    0.035900
C     -1.285500    1.943500   -0.090000
O     -1.367800    3.005800    0.832100
C     -0.819200    4.226400    0.383400
C      0.664600    4.205700    0.163000
C      1.477900    3.148400    0.108700
N      1.180100    1.784600    0.174100
H     -1.372700    2.302800   -1.128300
H     -2.115500    1.261600    0.106100
H     -1.337400    4.565300   -0.532900
H     -1.061000    4.957200    1.164600
H      1.131000    5.179800    0.049600
H      2.542200    3.316900   -0.018900
H      1.967000    1.153100    0.222900
