24
gdb_6419
C     -0.102100    1.533800   -0.113700
O     -0.056400    0.149300    0.131300
C     -1.306400   -0.525300    0.017000
C     -1.715900   -0.715600   -1.447000
C     -1.147200   -1.866800    0.736900
C     -0.807100   -1.773700    2.235500
C     -1.967700   -1.207900    3.066100
C     -0.382700   -3.147000    2.772800
H      0.889300    1.934300    0.114400
H     -0.338800    1.775000   -1.160600
H     -0.841900    2.037800    0.528800
H     -2.080100    0.077600    0.522100
H     -0.964200   -1.308800   -1.977700
H     -2.676500   -1.236700   -1.510700
H     -1.825100    0.241300   -1.965300
H     -2.070300   -2.446900    0.603500
H     -0.351700   -2.421400    0.222400
H      0.045900   -1.091200    2.328400
H     -2.854500   -1.849700    2.989800
H     -1.695600   -1.146600    4.125100
H     -2.255900   -0.202600    2.744300
H      0.477400   -3.542400    2.222200
H     -0.106700   -3.090300    3.831200
H     -1.198000   -3.875900    2.683300
