13
gdb_11165
N     -0.040200    1.286000   -0.008000
C     -0.029800    0.029200   -0.043100
C     -1.233000   -0.882000   -0.159900
O     -0.667600   -2.147700   -0.482600
C      0.634600   -2.140100    0.051100
O      1.077700   -0.775900    0.008100
C      0.687900   -2.650000    1.427400
C      0.725500   -3.085900    2.545600
H      0.903500    1.661000    0.095300
H     -1.786500   -0.912700    0.788400
H     -1.906500   -0.577500   -0.961600
H      1.279700   -2.727100   -0.608600
H      0.761100   -3.470700    3.535600
