15
gdb_2021
O     -0.008700    0.142800   -0.612100
C     -0.016000    1.227700   -0.109800
C     -1.135800    2.180800    0.353700
C     -0.029100    3.162800    0.785900
C     -0.050800    4.654800    0.642800
C     -0.023200    4.019400    2.016000
C      1.090600    2.210300    0.322600
H     -1.791300    2.515800   -0.457400
H     -1.758800    1.769500    1.155200
H      0.849500    5.148200    0.290300
H     -0.973300    5.124200    0.315800
H     -0.927100    4.060000    2.615700
H      0.895700    4.084000    2.590200
H      1.746500    1.815900    1.106200
H      1.714100    2.562100   -0.506400
