17
gdb_1748
C      0.064900    1.577300   -0.331700
C     -0.089400    0.085800   -0.119600
C     -1.433900   -0.407200    0.385500
C     -1.779700    0.092100    1.794100
O     -3.026200   -0.409000    2.250400
C      0.775900   -0.837600   -0.869800
O      1.042200   -0.549300    0.504600
H      1.063700    1.808900   -0.709200
H     -0.674500    1.945700   -1.051000
H     -0.075800    2.126900    0.604300
H     -2.228500   -0.101600   -0.306000
H     -1.419800   -1.504000    0.398300
H     -0.961600   -0.163700    2.483600
H     -1.885200    1.181500    1.802200
H     -2.939900   -1.362300    2.351100
H      0.435500   -1.851300   -1.079300
H      1.501700   -0.440700   -1.579100
