17
gdb_12273
C      0.221700    1.342000   -0.138700
O     -0.263300    0.050900    0.196700
C      0.502600   -0.574100    1.182700
C      0.079000   -2.043200    1.448800
N      1.436000   -2.440100    1.061200
C      2.069500   -3.727200    0.948700
C      1.869000   -1.181600    0.731800
O      2.901900   -0.773000    0.262700
H      1.249900    1.299500   -0.516200
H     -0.438200    1.735500   -0.914800
H      0.192300    2.015400    0.731800
H      0.586400    0.045200    2.088700
H     -0.187800   -2.291300    2.481600
H     -0.702100   -2.388400    0.763500
H      1.538000   -4.377100    0.242500
H      3.085700   -3.564700    0.581400
H      2.119400   -4.236600    1.918600
