18
gdb_9389
C     -0.011100    0.924200    1.109400
C     -0.131100   -0.026400   -0.069100
O     -1.373000   -0.697800    0.018900
C     -1.594000   -1.605900   -1.028100
C     -2.943900   -2.303600   -0.794200
O     -3.300800   -3.072000   -1.939000
C     -2.938400   -3.111300    0.426200
C     -2.911700   -3.827100    1.391400
H      0.943700    1.457300    1.072900
H     -0.820700    1.659300    1.093500
H     -0.067100    0.373400    2.052500
H     -0.065500    0.525600   -1.021900
H      0.694300   -0.758200   -0.063800
H     -1.641400   -1.098000   -2.004500
H     -0.792400   -2.362500   -1.079700
H     -3.708200   -1.522700   -0.708500
H     -2.833400   -3.912300   -1.881000
H     -2.901600   -4.443400    2.256300
