14
gdb_14320
O      0.093600   -0.046000   -0.060600
C      0.042300    1.158700    0.016600
N     -1.164500    1.888300    0.232000
C     -0.920400    3.281000   -0.002500
C     -0.804300    4.448500    1.059600
N      0.599400    4.656300    0.545700
C      0.570900    3.357000    0.044800
C      1.157700    2.152800    0.020600
H     -2.011200    1.446100   -0.094700
H     -1.375000    3.660200   -0.923300
H     -1.457200    5.315700    0.939600
H     -0.828400    4.070600    2.085400
H      1.339500    4.932400    1.179500
H      2.184600    1.866900    0.185500
