13
gdb_14545
O     -0.030000    1.362900    0.024700
C     -0.037200   -0.025500    0.010200
C      1.060500   -0.630400    0.726400
N      1.929600   -1.140500    1.293500
C     -1.344600   -0.828300    0.049800
C     -2.369300   -0.040200   -0.754300
O     -1.452600    0.045400   -1.895600
C     -0.516400   -0.780600   -1.213100
H     -0.230800    1.643700   -0.879400
H     -1.530500   -1.621000    0.760500
H     -3.252200   -0.621800   -1.031300
H     -2.653900    0.945600   -0.376900
H      0.060800   -1.500900   -1.780400
