17
gdb_13872
C      0.269300    1.163700   -0.622000
C     -0.027300    0.024600    0.361100
O      0.187500    0.446700    1.688200
C     -1.434300   -0.485900    0.206500
N     -2.295000   -0.477600    1.140700
C     -3.525700   -1.060100    0.586700
C     -3.163400   -1.393800   -0.885700
O     -1.779200   -0.980000   -1.005400
H      1.295600    1.507000   -0.471800
H      0.152800    0.828100   -1.655900
H     -0.406000    2.004700   -0.439400
H      0.645800   -0.817100    0.128000
H     -0.647000    0.301700    2.157900
H     -3.812100   -1.948000    1.159700
H     -4.349100   -0.342600    0.663100
H     -3.220900   -2.459400   -1.122200
H     -3.749900   -0.834500   -1.619300
