16
gdb_2698
C     -0.106800    1.518600    0.012000
C     -0.014700    0.002900    0.002300
O     -1.329200   -0.527800    0.011900
C     -1.362300   -1.931300    0.004200
C     -2.841100   -2.339200    0.016100
C     -3.012700   -3.788300    0.009400
N     -3.129400   -4.937700    0.003900
H      0.894500    1.959000    0.004900
H     -0.649900    1.876100   -0.867300
H     -0.633000    1.865800    0.905500
H      0.526200   -0.349200   -0.891500
H      0.543200   -0.359400    0.881500
H     -0.865700   -2.339600   -0.890500
H     -0.848600   -2.349800    0.884400
H     -3.325000   -1.919500    0.904100
H     -3.342000   -1.909400   -0.857600
