14
gdb_13308
N     -0.093100   -1.173400    0.020900
C     -0.034000   -0.021500    0.080900
C      0.026700    1.437200    0.127400
C      1.462100    1.985600   -0.006500
C      1.512600    3.539200   -0.040300
O      2.362300    3.887300    1.077400
C      2.696100    2.709400    1.654100
N      2.277000    1.619000    1.164100
H     -0.595300    1.834100   -0.683700
H     -0.408200    1.783100    1.071800
H      1.915100    1.550600   -0.903100
H      1.962400    3.940000   -0.951200
H      0.536300    4.010300    0.113400
H      3.326000    2.804000    2.531500
