16
gdb_17201
O      0.146600    1.409500   -0.102000
C      0.092400    0.025800   -0.071500
C      0.008100   -0.679900    1.319800
O     -1.362900   -0.096800    1.455300
C     -1.306400   -0.656000    0.068900
C     -0.615100   -1.893500    0.635200
C     -0.080700   -3.156300    0.049400
C     -1.132900   -3.182900    1.154600
H     -0.489000    1.696100    0.571300
H      0.786700   -0.380500   -0.808900
H      0.667700   -0.617400    2.185900
H     -2.202500   -0.565100   -0.545600
H     -0.389700   -3.435200   -0.952800
H      0.930100   -3.459300    0.303100
H     -0.821800   -3.504000    2.143200
H     -2.141600   -3.480000    0.887200
