15
gdb_17221
C      0.055800   -1.145700   -0.051300
C      0.032700    0.057100   -0.000900
C     -0.029500    1.473100    0.080900
C     -1.106500    2.369500    0.689200
N     -0.535700    3.541500   -0.076500
C      0.815800    3.705700    0.595800
C      1.238700    2.376500   -0.001100
C      0.143600    2.514500   -1.006800
H      0.080500   -2.205900   -0.098800
H     -2.100400    2.128300    0.305800
H     -1.145600    2.504600    1.775500
H      1.342300    4.550800    0.144700
H      0.773600    3.831000    1.683000
H      2.216200    1.928200   -0.124200
H      0.073600    2.474300   -2.084200
