16
gdb_17214
C     -0.360200    1.380800    0.010500
O      0.998500    0.913100    0.000400
C     -0.043600   -0.044600    0.035000
C     -0.173700   -1.104600    1.142100
C     -0.458500   -2.172500    0.047900
C     -1.909400   -2.220400   -0.465600
O     -1.658700   -1.187300   -1.450600
C     -0.274300   -1.091600   -1.061400
H     -0.672600    1.878600    0.927600
H     -0.705600    1.840700   -0.913900
H      0.779000   -1.264300    1.654200
H     -0.956600   -0.950800    1.890200
H      0.095900   -3.107600    0.092900
H     -2.196000   -3.161700   -0.949700
H     -2.689300   -1.934500    0.251700
H      0.419900   -1.122600   -1.905100
