18
gdb_10398
C     -1.470900   -0.134300   -0.123200
O     -0.071200    0.093400   -0.141000
C      0.660900   -0.665100   -1.086600
C      0.396500   -0.168700   -2.504700
O      0.657100    1.216400   -2.605400
C      2.153700   -0.744500   -0.721200
O      2.135900   -2.184400   -0.851500
C      0.697200   -2.203900   -0.924200
H     -1.968200    0.213600   -1.038400
H     -1.707600   -1.197500    0.019600
H     -1.867500    0.428700    0.724500
H      1.064900   -0.685200   -3.201300
H     -0.636500   -0.411800   -2.805800
H      0.304400    1.612500   -1.798700
H      2.858000   -0.268700   -1.409900
H      2.353500   -0.423200    0.308100
H      0.240500   -2.556400    0.010500
H      0.331900   -2.809300   -1.762200
