16
gdb_18994
C      0.076200    1.519200    0.119700
O      1.479900    1.502800   -0.236500
C      1.488800    0.072700   -0.334800
C      2.059400   -0.664600    0.896600
C      1.149700   -1.918900    0.960200
C      0.160800   -0.794700    1.363600
O      1.278700   -0.098900    1.992900
C     -0.016600   -0.018500    0.042900
H     -0.087700    1.957700    1.109300
H     -0.516500    2.054800   -0.631100
H      1.866800   -0.289700   -1.295600
H      3.134200   -0.673100    1.072100
H      0.961900   -2.493700    0.048400
H      1.405400   -2.566900    1.798500
H     -0.694700   -0.944500    2.022100
H     -0.732900   -0.452300   -0.653900
