12
gdb_21086
C      0.036600    1.421800   -0.018300
N      0.039400   -0.029400    0.015700
N      0.163700   -0.750300   -1.110500
C      0.121800   -2.003200   -0.668900
N     -0.021500   -2.136100    0.669500
C     -0.070700   -0.873500    1.075100
C     -0.216500   -0.417000    2.412300
N     -0.333700   -0.000500    3.485400
H      0.976700    1.780500   -0.442400
H     -0.794400    1.772600   -0.633400
H     -0.074900    1.795200    1.000100
H      0.197800   -2.844200   -1.341200
