19
gdb_19354
C     -0.135300    1.499400    0.020800
C      0.079500   -0.019900    0.023500
C      0.704900   -0.504100   -1.250200
C     -0.051900   -0.893500   -2.490300
C      0.893600   -1.880100   -1.848500
C      2.368500   -1.500600   -2.063700
C      2.598700   -0.265600   -2.839400
N      2.183500   -0.148700   -1.426800
H      0.814500    2.016700   -0.144600
H     -0.826000    1.798800   -0.774300
H     -0.547100    1.841200    0.975100
H      0.729500   -0.296300    0.862400
H     -0.874300   -0.540400    0.173100
H     -1.097400   -1.109000   -2.288700
H      0.109000   -0.473300   -3.477100
H      0.575900   -2.844700   -1.474700
H      3.181000   -2.146800   -1.746300
H      3.633200    0.038300   -2.975500
H      1.944000    0.045200   -3.644900
