18
gdb_19743
C     -0.021100    1.501400   -0.015100
C      1.509700    1.810800   -0.029800
C      2.053900    0.385200    0.019100
C      1.162400   -0.456900   -0.972400
C      1.457100   -1.895700   -0.567600
C      1.460400   -1.848700    0.767400
C      1.167400   -0.385000    1.071600
C      0.032100   -0.023500    0.038400
H     -0.530100    1.930100    0.854000
H     -0.534500    1.868100   -0.909600
H      1.823800    2.344800   -0.932300
H      1.828200    2.406900    0.831400
H      3.136400    0.240200    0.021500
H      1.100200   -0.199300   -2.031900
H      1.619100   -2.728700   -1.236900
H      1.625900   -2.632700    1.492800
H      1.110300   -0.053600    2.110600
H     -0.908800   -0.577600    0.060200
