20
gdb_17271
C      0.040400    1.526400   -0.050300
C      0.229700    0.025900   -0.015400
C      1.592900   -0.568200    0.293400
C      0.458700   -0.689000    1.282300
O      0.456400    0.086400    2.445400
C      1.118800   -0.511000    3.521000
C      2.585800   -0.250200    3.742900
C      1.537700    0.398300    4.628100
H      0.613800    2.010400    0.743400
H      0.364700    1.939000   -1.011700
H     -1.011900    1.794500    0.093000
H     -0.369500   -0.521300   -0.738700
H      1.924400   -1.453400   -0.239000
H      2.381900    0.133200    0.541700
H      0.003500   -1.671500    1.414400
H      0.734300   -1.497700    3.781300
H      3.200800   -1.044800    4.151300
H      3.086300    0.390600    3.027100
H      1.351700    1.455600    4.477200
H      1.425000    0.058000    5.651200
