14
gdb_18609
O      0.122500    1.375500   -0.058400
C     -0.022900    0.004500    0.012200
C     -0.454600   -0.766300    1.251800
C     -1.176100    0.046100    2.270600
C     -2.336200    0.540200    1.806600
C     -2.580200    0.049400    0.417100
O     -3.563800    0.238400   -0.259900
C     -1.353100   -0.743900    0.022200
H     -0.511500    1.790200    0.540500
H      0.754500   -0.466000   -0.581500
H      0.112700   -1.637900    1.557500
H     -0.754300    0.245000    3.249700
H     -3.026400    1.193900    2.323800
H     -1.476900   -1.584200   -0.649000
