22
gdb_13626
C      0.059400    1.557200    0.087700
C     -0.031100    0.031100    0.146900
C     -1.448200   -0.501500   -0.111400
O     -1.946800   -0.060900   -1.378200
C     -1.512600   -2.009000    0.017600
C     -1.844300   -2.671200    1.336800
C     -2.817000   -2.753400    0.185500
C     -4.156500   -2.049800    0.231100
H      1.090500    1.900200    0.215700
H     -0.312600    1.925600   -0.871800
H     -0.545800    2.018100    0.876600
H      0.647200   -0.413100   -0.596700
H      0.306800   -0.335800    1.123800
H     -2.128200   -0.042600    0.616000
H     -1.440300   -0.515800   -2.060300
H     -0.759500   -2.518100   -0.584200
H     -1.291000   -3.556100    1.632200
H     -2.109800   -2.020700    2.165600
H     -2.850100   -3.715300   -0.320800
H     -4.116500   -1.131800    0.824100
H     -4.494400   -1.775200   -0.773100
H     -4.916300   -2.696900    0.683000
