13
gdb_23745
N     -0.001000    1.405700    0.168200
C     -0.023700    0.032000    0.062200
C     -1.195300   -0.733600    0.040400
C     -1.102300   -2.119200   -0.013600
N      0.046000   -2.800500   -0.049200
C      1.170000   -2.074600   -0.032300
C      1.171500   -0.696100    0.021400
F      2.329300   -0.009000    0.025900
H      0.866000    1.847800   -0.095100
H     -0.824200    1.896400   -0.143000
H     -2.165000   -0.247100    0.069100
H     -2.011900   -2.714700   -0.030100
H      2.119000   -2.603900   -0.065800
