22
gdb_9543
C     -0.084800    1.565800   -0.098900
C      0.049400    0.054700    0.025200
C      1.047100   -0.696700   -0.897700
C      1.396000   -1.633300    0.287800
C      0.761100   -0.596500    1.267200
C      1.815900    0.292600    1.929400
C     -0.192100   -1.168900    2.307000
O      0.555200   -1.951100    3.230200
H      0.885000    2.067400   -0.020600
H     -0.515900    1.833800   -1.070300
H     -0.739100    1.981000    0.676100
H     -0.944100   -0.400200   -0.078600
H      0.644100   -1.153400   -1.805200
H      1.891100   -0.060600   -1.183200
H      0.829100   -2.568300    0.260700
H      2.449700   -1.875200    0.446000
H      2.543400    0.668200    1.203000
H      1.358400    1.158300    2.422200
H      2.356400   -0.279100    2.688100
H     -0.719300   -0.345800    2.819900
H     -0.954900   -1.783900    1.802300
H     -0.050300   -2.299300    3.890600
