15
gdb_6682
N     -0.179000    1.303700   -0.189700
C      0.074400   -0.029900   -0.048400
O      1.167500   -0.543600   -0.044300
O     -1.097700   -0.712900    0.052700
C     -0.953700   -2.133000    0.170900
C     -2.358900   -2.725600    0.204100
C     -2.335400   -4.237000    0.119200
O     -2.898500   -4.975200    0.883900
H      0.606000    1.921200   -0.075700
H     -1.095400    1.653600    0.031700
H     -0.375600   -2.513500   -0.678100
H     -0.394300   -2.370800    1.081300
H     -2.903800   -2.424700    1.102000
H     -2.907100   -2.355500   -0.674000
H     -1.749400   -4.640300   -0.739700
