16
gdb_14496
N     -0.005500    1.470400   -0.039700
C     -0.006000    0.016400   -0.009600
C      0.955800   -0.540600   -0.975400
N      1.731500   -0.898500   -1.756300
C     -0.059400   -0.673900    1.400100
C     -1.516900   -0.140400    1.528900
C     -1.400200   -0.700900    0.080500
C     -0.659800   -1.923800    0.694500
H      0.925500    1.821900    0.166600
H     -0.233300    1.798600   -0.974300
H      0.736600   -0.646400    2.145000
H     -2.164800   -0.708600    2.198800
H     -1.641700    0.934300    1.633700
H     -2.158000   -0.704600   -0.703800
H     -0.003200   -2.498400    0.039000
H     -1.267500   -2.574200    1.325300
