15
gdb_19606
C      0.009000    1.532300    0.036100
N      0.068300    0.075200   -0.011300
C      0.773200   -0.562300   -1.126200
C      1.344200   -1.623900   -0.272600
C      2.298400   -0.542300   -0.866900
C      2.445100   -0.025600    0.528500
O      3.358000    0.405000    1.175600
C      1.043100   -0.603600    0.888400
H      0.986300    2.027200   -0.086400
H     -0.659700    1.886600   -0.754600
H     -0.412700    1.840300    0.997800
H      0.380800   -0.608000   -2.135300
H      1.412700   -2.698300   -0.319800
H      3.042800   -0.661100   -1.641200
H      0.748800   -0.804800    1.916000
