17
gdb_13552
C     -0.843800    1.182800    0.407800
N     -0.174800   -0.098600    0.223100
C      1.097400   -0.122300   -0.485100
C      1.031700   -0.410400    0.976700
C      1.635600    0.556200    1.987500
O      0.844200    0.636900    3.172600
C      3.021000    0.176200    2.281300
C      4.138100   -0.184700    2.540700
H     -0.172100    2.055600    0.399500
H     -1.567600    1.314700   -0.402200
H     -1.379400    1.174100    1.360500
H      1.240200   -0.924700   -1.203900
H      1.536100    0.832300   -0.778300
H      1.086100   -1.448500    1.305700
H      1.625100    1.572000    1.580000
H      0.918800   -0.208600    3.629700
H      5.132200   -0.482400    2.767200
