16
gdb_18558
O      0.152100    0.013200   -0.478200
C      0.052100    1.151400   -0.129500
C     -1.120900    2.027500    0.351100
C     -0.101400    3.153900    0.696000
C      0.314600    3.283500    2.171500
C      1.382500    2.185300    2.340000
O      2.051500    2.109400    1.080500
C      1.077500    2.313800    0.086600
H     -1.818500    2.276300   -0.454800
H     -1.696500    1.606600    1.181800
H     -0.308900    4.115000    0.227500
H      0.761800    4.266300    2.346000
H     -0.520900    3.163500    2.866600
H      2.133400    2.409600    3.100500
H      0.920100    1.217400    2.588000
H      1.568000    2.662900   -0.826000
