18
gdb_16961
C     -0.189900    1.559800    0.013500
C      0.021200    0.048500   -0.005000
C      0.876100   -0.500500   -1.196400
C      1.972600   -1.278800   -0.435900
C      2.912000   -0.273200    0.254700
O      2.065700    0.241900    1.297700
C      0.855300   -0.505800    1.172200
O      1.261500   -1.778900    0.712300
H      0.768700    2.085300    0.039200
H     -0.743500    1.889200   -0.871400
H     -0.761500    1.868100    0.895800
H     -0.950000   -0.457400    0.011400
H      0.297100   -1.167200   -1.839000
H      1.291300    0.297600   -1.818400
H      2.457600   -2.095900   -0.967600
H      3.789100   -0.758400    0.698300
H      3.239400    0.537200   -0.405400
H      0.367100   -0.573300    2.144700
