17
gdb_18676
O      0.026400   -0.023800   -0.245000
C      0.004300    1.171800   -0.054800
C     -1.284800    1.964400    0.100100
C     -1.188500    3.251100   -0.737500
C     -0.044700    4.139000   -0.242700
N      1.256900    3.446500   -0.126400
C      1.577000    2.836500    1.144600
C      1.269400    1.973100   -0.043700
H     -2.112700    1.321100   -0.206600
H     -1.438700    2.218800    1.157500
H     -1.020400    2.985400   -1.788300
H     -2.128800    3.811500   -0.701300
H      0.096000    4.978700   -0.931700
H     -0.309800    4.569200    0.731800
H      2.608300    2.922300    1.477200
H      0.837900    2.878800    1.943900
H      2.093700    1.484500   -0.556100
