14
gdb_15286
C     -0.761500    0.110900   -0.900300
C     -0.113100    0.577500   -0.002100
C      0.717200    1.118900    1.073200
N      1.662700    2.197300    0.729200
C      2.002500    2.458000   -0.655300
C      1.186300    3.447000    0.124600
C     -0.201800    3.670500   -0.201600
N     -1.311700    3.913000   -0.419000
H     -1.363600   -0.284300   -1.681300
H      0.084100    1.488300    1.887300
H      1.326400    0.309600    1.492400
H      3.046600    2.681300   -0.854600
H      1.478400    1.899000   -1.426100
H      1.671800    4.334700    0.522000
