18
gdb_13147
C     -0.181000    1.318200   -0.077600
O      0.074200   -0.062400    0.001400
C      0.607800   -0.588200   -1.193000
C      0.782800   -2.082600   -1.006900
O     -0.452800   -2.830300   -1.113500
C      0.000200   -3.519400   -2.294900
C      1.393700   -2.858300   -2.195600
O      1.802000   -2.024100   -3.254600
H      0.735700    1.893200   -0.287100
H     -0.917800    1.554400   -0.861800
H     -0.581900    1.633100    0.889100
H     -0.057400   -0.390400   -2.047100
H      1.586000   -0.134000   -1.424200
H      1.261400   -2.261300   -0.036400
H     -0.042800   -4.609400   -2.179700
H     -0.555800   -3.222000   -3.193900
H      2.192600   -3.549600   -1.901300
H      2.172700   -2.571900   -3.953000
