16
gdb_16932
O      0.016300   -0.008200   -0.026900
C     -0.009600    1.191700   -0.010700
C     -1.253500    2.108100    0.035800
C     -0.614500    3.513800    0.082900
C      0.101300    3.645200    1.434000
O      1.190800    2.704200    1.338500
C      1.174300    2.177500   -0.004100
C      0.618500    3.332200   -0.840600
H     -1.845800    1.954700   -0.872900
H     -1.890200    1.869200    0.892400
H     -1.285900    4.339000   -0.154300
H      0.502100    4.653100    1.601700
H     -0.534400    3.375900    2.285200
H      2.148300    1.752200   -0.237000
H      0.357800    3.042500   -1.862500
H      1.284600    4.198000   -0.860800
