16
gdb_13555
O     -0.469100    1.236900    0.088400
C     -0.075800   -0.145300    0.034800
C      0.741400   -0.407600   -1.150700
C      1.437300   -0.598200   -2.112100
C      0.624800   -0.607000    1.312000
C      1.483100    0.348200    2.124100
C      0.152000   -0.122400    2.659900
O     -0.937100    0.732200    2.802700
H      0.298400    1.767400   -0.153300
H     -1.023100   -0.691100   -0.057300
H      2.041300   -0.774500   -2.968000
H      0.962700   -1.637300    1.245300
H      2.405200   -0.021500    2.559200
H      1.527800    1.383400    1.800400
H      0.168900   -0.839500    3.474800
H     -1.011100    1.243300    1.983800
