16
gdb_1918
C     -0.171800    1.482600    0.032600
N      0.086800    0.055100    0.037100
C      1.151800   -0.480700   -0.862500
C      1.810500   -1.153200    0.348600
O      2.268300   -2.456100    0.368100
C      2.184700   -0.115800    1.376900
C      0.732400   -0.538100    1.206400
H      0.718100    2.109400    0.222600
H     -0.588600    1.774000   -0.937000
H     -0.916800    1.716400    0.800400
H      0.748700   -1.189400   -1.593200
H      1.754000    0.278100   -1.381300
H      3.217600   -2.444800    0.205200
H      2.656700   -0.527300    2.264200
H      2.531500    0.873800    1.090200
H      0.148700   -0.952900    2.020900
