15
gdb_4430
C      0.171700    1.513400    0.055000
C     -0.029300    0.047600   -0.003700
C     -1.094300   -0.753800    0.025300
C     -2.555000   -0.536000    0.129300
O     -0.661100   -2.073200   -0.066900
C      0.696900   -2.052300   -0.152800
N      1.396800   -3.092100   -0.248300
O      1.112800   -0.745700   -0.115500
H      0.790100    1.793200    0.915300
H      0.677000    1.879300   -0.845900
H     -0.789300    2.024700    0.141800
H     -3.076600   -0.944500   -0.743400
H     -2.964100   -1.030500    1.017400
H     -2.776400    0.531200    0.195600
H      2.383200   -2.851600   -0.299600
