17
gdb_13684
C      0.131200    1.343200   -0.495500
C     -0.147100    0.075900    0.271800
O      0.893700   -0.907600    0.337000
C      0.456800   -0.296900    1.561900
C      1.489700    0.518500    2.301700
N      2.511500   -0.347800    2.867500
C      2.797300   -0.392000    4.196000
O      2.272300    0.292500    5.048800
H      1.127400    1.739600   -0.291300
H      0.060800    1.149900   -1.570900
H     -0.609900    2.109700   -0.245000
H     -1.130000   -0.355800    0.070200
H     -0.110400   -0.972100    2.205600
H      1.950000    1.257500    1.638800
H      1.032400    1.048100    3.141600
H      2.986700   -0.982500    2.244800
H      3.585200   -1.138000    4.419600
