17
gdb_11553
N      0.019600    1.272400   -0.357900
C     -0.129700   -0.068000    0.179000
C      0.883100   -0.452600    1.254700
O      1.746600    0.271300    1.679900
O      0.667700   -1.718000    1.678000
C      1.547100   -2.208800    2.676600
C      1.336800   -3.634700    3.062500
C      2.564200   -3.230200    2.267300
H     -0.015700    1.939600    0.408200
H      0.955700    1.372200   -0.741100
H     -1.133000   -0.191600    0.603700
H     -0.060100   -0.805500   -0.629200
H      1.805800   -1.464000    3.418300
H      1.448200   -3.905600    4.106200
H      0.561000   -4.175200    2.532300
H      2.585900   -3.508800    1.220000
H      3.531500   -3.214200    2.756400
