19
gdb_14062
C     -0.099100    1.586800    0.261900
C      0.020400    0.082300    0.148700
N      1.266000   -0.606800   -0.226200
C      2.475600    0.150300   -0.514600
C      0.798900   -0.709200    1.136100
C      1.465000   -0.242300    2.434500
O      1.092400   -1.475600    3.082800
C      0.495000   -2.006900    1.876700
H      0.733000    2.038200    0.807500
H     -0.148500    2.054300   -0.727500
H     -1.020400    1.845000    0.794700
H     -0.857700   -0.392100   -0.291000
H      2.644000    1.027200    0.128000
H      3.338900   -0.514000   -0.406300
H      2.444500    0.491600   -1.553900
H      2.555000   -0.112700    2.388700
H      1.023700    0.632900    2.928900
H     -0.564200   -2.256400    2.018000
H      1.030700   -2.886400    1.497300
