18
gdb_7689
C     -0.056400    1.584100   -0.050600
C      0.065300    0.080400    0.050100
O     -1.105200   -0.595600   -0.362000
C      1.313400   -0.718700   -0.223300
C      2.570600   -0.015500    0.293000
C      1.951400   -0.052000    1.738400
O      1.767700    1.154100    2.452500
C      0.679400   -0.679100    1.191000
H      0.791000    2.097900    0.402000
H     -0.139100    1.894700   -1.100600
H     -0.961800    1.908700    0.471200
H     -1.222500   -0.421000   -1.302400
H      1.291600   -1.540000   -0.929000
H      3.478100   -0.618600    0.211600
H      2.771700    0.979400   -0.115500
H      2.491400   -0.783600    2.354100
H      2.622200    1.431100    2.798400
H      0.090600   -1.436000    1.694100
