15
gdb_2231
O     -0.053800    1.383100    0.039700
C     -0.007700   -0.012300    0.044600
C     -0.397700   -0.760900   -1.201600
C     -1.301800   -0.795300    0.029900
C     -1.079600   -1.942700    0.955700
C      0.146300   -1.916900    1.486200
C      0.931500   -0.701600    1.039900
H      0.672000    1.703100   -0.506900
H     -0.739600   -0.145700   -2.027800
H      0.129800   -1.668200   -1.479800
H     -2.261600   -0.295300   -0.029700
H     -1.827600   -2.706100    1.137400
H      0.557900   -2.662300    2.157000
H      1.899900   -0.966500    0.596400
H      1.140900   -0.022900    1.877900
