12
gdb_584
O      0.051800    0.068800    0.140400
C      0.174700    1.247500    0.282400
O      0.973300    1.994400   -0.510700
C      0.996000    3.384000   -0.243100
C      1.850900    3.893800    0.884600
C      2.278700    4.079800   -0.555400
H     -0.337800    1.845800    1.059500
H      0.057200    3.881900   -0.467400
H      1.499500    4.751700    1.446500
H      2.387900    3.154700    1.468200
H      3.087800    3.456000   -0.916800
H      2.230200    5.068200   -0.997000
