14
gdb_18900
O      0.181400    1.384000   -0.154900
C      0.056000    0.026100   -0.044200
C      0.855000   -1.018800   -0.789300
C      0.861600   -1.000600    0.747200
C     -0.358900   -1.963500    0.756100
C     -0.353100   -1.997300   -0.780200
C     -1.189900   -0.969700   -0.023100
O     -2.543700   -0.791100    0.061900
H     -0.025400    1.780500    0.699700
H      1.674400   -0.875800   -1.481100
H      1.691800   -0.863400    1.428100
H     -0.690100   -2.717100    1.458100
H     -0.658600   -2.790700   -1.450100
H     -2.871000   -0.519700   -0.803800
