16
gdb_7314
C     -0.040600    1.304000    0.186500
N     -0.031700   -0.128500   -0.065600
C     -0.152900   -1.033500    1.059400
C     -1.563800   -1.077200    1.624600
O     -1.825700   -1.186600    2.793100
C      0.180600   -0.673100   -1.319100
N      0.273800    0.246400   -2.354300
O      0.321200   -1.870100   -1.506100
H      0.716900    1.806300   -0.421700
H     -1.017100    1.769900   -0.009200
H      0.203500    1.482800    1.236500
H      0.089600   -2.034500    0.683600
H      0.547000   -0.780600    1.863900
H     -2.359200   -1.008000    0.845700
H     -0.269000    1.094200   -2.305700
H      0.255700   -0.205300   -3.255900
