17
gdb_1362
C     -0.060500    1.536900   -0.087400
C      0.040500    0.033900    0.046900
C      1.363600   -0.696300   -0.162700
O      2.542600    0.034200   -0.352300
C      0.730800   -0.644500    1.205600
C      1.380200    0.130400    2.327500
O      0.059600   -1.811700    1.617700
H      0.891700    2.027600    0.128700
H     -0.351400    1.815000   -1.106800
H     -0.814400    1.948500    0.591700
H     -0.826800   -0.518300   -0.304700
H      1.324600   -1.657900   -0.674600
H      2.520500    0.413000   -1.237700
H      1.952500    0.979600    1.952200
H      0.626000    0.486900    3.036100
H      2.078200   -0.515600    2.874600
H      0.718600   -2.413100    1.984100
