20
gdb_6216
C      0.177200    1.525800   -0.369100
C      0.068900    0.025300   -0.080000
C     -1.370100   -0.373300    0.254400
C      0.671700   -0.839400   -1.218200
C      2.096200   -1.136100   -0.748100
O      2.922700   -0.049700   -1.151400
C      1.891700   -1.201900    0.768400
O      0.894900   -0.248900    1.079700
H      1.206300    1.780300   -0.629700
H     -0.478600    1.812700   -1.198100
H     -0.116600    2.098500    0.515700
H     -2.030600   -0.205600   -0.603200
H     -1.425200   -1.431400    0.528800
H     -1.744600    0.217500    1.095600
H      0.118400   -1.777700   -1.323800
H      0.671200   -0.330000   -2.183700
H      2.482500   -2.084400   -1.148300
H      3.765200   -0.125800   -0.692500
H      1.580900   -2.219800    1.060100
H      2.802000   -0.957800    1.330800
