16
gdb_1271
C     -0.218300    1.390800   -0.081400
C      0.058500   -0.084200   -0.024100
N      1.237000   -0.548800   -0.008500
O     -1.119000   -0.776800    0.010100
C     -1.071400   -2.203600    0.039000
C     -2.515900   -2.678300    0.020600
O     -3.190200   -2.268300   -1.150300
H      0.723000    1.938000   -0.092100
H     -0.795600    1.633800   -0.979100
H     -0.816000    1.698100    0.782300
H      1.263600   -1.566500    0.031900
H     -0.537600   -2.576800   -0.844400
H     -0.555900   -2.552200    0.944200
H     -2.535200   -3.772800    0.035500
H     -3.022900   -2.319400    0.929900
H     -3.090500   -1.310900   -1.200400
