13
gdb_16275
O     -0.963000    1.316600   -0.168700
C      0.143200    0.881300    0.067400
C      1.355100    1.712200   -0.009900
N      1.217700    3.210000   -0.032600
C      1.784400    2.593200   -1.200800
C      3.274000    2.357600   -0.909500
C      2.815700    1.400200    0.226900
O      3.373700    0.566800    0.877200
H      0.311300   -0.178400    0.340400
H      0.216000    3.354600   -0.193000
H      1.291300    2.596800   -2.164800
H      3.813000    1.805200   -1.683200
H      3.833900    3.247600   -0.616300
