16
gdb_5607
C     -0.025600    1.435300    0.064700
N     -0.009400   -0.011500    0.041500
C     -0.028000   -0.808100   -1.071300
N     -0.005800   -2.083700   -0.772100
C      0.029200   -2.128400    0.603400
C      0.027500   -0.862800    1.130500
C      0.057600   -0.373500    2.541200
O      0.075200   -1.507300    3.386800
H      0.871400    1.835100    0.549800
H     -0.055100    1.804300   -0.962100
H     -0.906500    1.814500    0.593600
H     -0.057500   -0.383900   -2.064900
H      0.053200   -3.059700    1.145500
H      0.945800    0.263000    2.707500
H     -0.822200    0.263700    2.744700
H      0.107600   -1.200200    4.297000
