19
gdb_11592
C      0.218800    1.440800   -0.139400
C     -0.190600   -0.022200   -0.044000
O     -1.053900   -0.399100    0.728500
N      0.480300   -0.867400   -0.882100
C      0.192500   -2.290100   -0.968600
C     -0.124700   -2.724800   -2.381500
C      0.994000   -3.041900   -3.347700
C      0.125600   -4.148300   -2.801900
H      1.014300    1.632700   -0.864400
H     -0.659500    2.033300   -0.409300
H      0.547700    1.777800    0.847100
H      1.159500   -0.486200   -1.519800
H      1.043900   -2.873400   -0.588900
H     -0.651200   -2.466100   -0.296800
H     -1.000700   -2.242100   -2.806000
H      0.876700   -2.758200   -4.387500
H      2.015400   -2.981200   -2.983800
H      0.564500   -4.821900   -2.073000
H     -0.588800   -4.620600   -3.466300
