16
gdb_6963
C      0.288500    1.493000   -0.015300
C     -0.112700    0.009600   -0.045100
O     -1.516400   -0.130900   -0.017100
C      0.516300   -0.765000   -1.208400
C      1.852500   -1.230100   -0.609600
O      1.623900   -1.362800    0.812600
C      0.497800   -0.711000    1.166400
O      0.039500   -0.718000    2.275500
H      1.372600    1.629400   -0.094100
H     -0.192300    2.007300   -0.851800
H     -0.046500    1.953000    0.918600
H     -1.767900   -0.124600    0.917500
H     -0.123900   -1.619800   -1.441300
H      0.650400   -0.169800   -2.113800
H      2.186600   -2.201400   -0.978000
H      2.656400   -0.501800   -0.760900
