19
gdb_1747
C      0.045400    1.583200    0.256000
C     -0.025300    0.080900    0.045900
C     -1.353500   -0.455800   -0.464100
C     -1.726200    0.022000   -1.865000
O     -2.936100   -0.628100   -2.229900
C      1.234400   -0.625800   -0.402900
C      0.740100   -0.787600    1.015800
H      1.014100    1.875800    0.673200
H     -0.086500    2.135400   -0.681200
H     -0.732000    1.920800    0.952000
H     -1.326400   -1.551500   -0.484700
H     -2.161800   -0.177400    0.224600
H     -1.849300    1.116100   -1.876900
H     -0.912800   -0.222800   -2.567000
H     -3.191300   -0.318300   -3.103600
H      1.137700   -1.473100   -1.074100
H      2.126900   -0.031400   -0.568400
H      1.297400   -0.299200    1.808600
H      0.309800   -1.742000    1.300800
