20
gdb_10881
C     -0.110800    1.639800    0.170200
C      0.015800    0.123500    0.120600
C      1.153400   -0.599100   -0.679200
C      2.151500   -0.165500    0.433400
C      0.861500   -0.662000    1.160500
O      0.574500   -0.656600    2.515100
C      0.879400   -1.883500    0.172300
C     -0.327700   -2.784600   -0.040400
H      0.839400    2.161300    0.304200
H     -0.564700    2.013000   -0.754500
H     -0.766100    1.933100    0.997500
H     -0.976000   -0.302700   -0.045100
H      1.326000   -0.559200   -1.753100
H      3.043700   -0.788900    0.546400
H      2.400500    0.892300    0.507500
H      1.252800   -1.164300    2.973600
H      1.778300   -2.502000    0.288600
H     -1.263000   -2.244000   -0.200800
H     -0.170400   -3.435600   -0.907500
H     -0.471200   -3.432500    0.831700
