15
gdb_14219
C     -0.032700    1.456000    0.065500
C      0.058700   -0.032900   -0.075800
C     -0.581700   -0.899600   -1.159000
C     -0.415900   -2.035200   -0.131600
N     -0.329000   -0.965800    1.016600
C      1.145100   -0.827400    0.606000
C      1.098100   -2.201700    0.024100
O      1.865300   -3.115400   -0.072100
H      0.597700    1.956300   -0.677100
H     -1.065100    1.790700   -0.079000
H      0.290700    1.772600    1.061300
H     -1.631700   -0.621000   -1.288500
H     -0.100600   -1.006200   -2.135900
H     -1.099600   -2.875900   -0.050700
H      1.883900   -0.371200    1.252600
