19
gdb_2728
C     -0.022900    1.381300    0.022900
O      0.000900   -0.024200    0.006000
C      0.648700   -0.549400   -1.132400
C      0.619800   -2.069500   -1.052300
C      1.302600   -2.733200   -2.250700
C      1.275700   -4.253700   -2.174200
O      1.929800   -4.761700   -3.327500
H      0.992700    1.809500    0.028900
H     -0.559700    1.793700   -0.846900
H     -0.540300    1.690800    0.934400
H      0.146900   -0.203600   -2.053500
H      1.690900   -0.187100   -1.182500
H      1.105500   -2.376800   -0.118000
H     -0.425900   -2.393100   -0.981600
H      0.817100   -2.426200   -3.185300
H      2.348400   -2.409700   -2.322100
H      1.777300   -4.587700   -1.251000
H      0.231600   -4.604000   -2.120600
H      1.919500   -5.722000   -3.280200
