18
gdb_19826
O      0.085900    1.452500   -0.163600
C      0.031400    0.053900    0.012000
C      0.285900   -0.545200    1.442600
C     -1.120300   -1.214700    1.392900
C     -2.331900   -0.460300    1.989900
C     -2.219600    1.029900    1.836000
C     -2.589400    0.215700    0.631000
C     -1.400600   -0.551800    0.011900
H      1.011100    1.717800   -0.159600
H      0.659000   -0.452100   -0.735800
H      1.120400   -1.250300    1.482100
H      0.422700    0.200700    2.229700
H     -1.157200   -2.297700    1.505500
H     -3.043700   -0.901800    2.678000
H     -3.049700    1.582100    2.267300
H     -1.273600    1.554600    1.883500
H     -3.528400    0.374200    0.114400
H     -1.672600   -1.150700   -0.857700
