16
gdb_10155
C     -0.073700    1.435400    0.222700
N     -0.017500   -0.004900   -0.002100
C     -1.322900   -0.637900    0.054300
C     -1.187500   -2.164100   -0.090200
C     -2.493800   -2.912300    0.225200
O     -3.419900   -2.402000    0.790800
C     -0.691200   -2.560600   -1.408300
N     -0.318200   -2.864200   -2.459500
H      0.928800    1.858200    0.115300
H     -0.751400    1.973500   -0.462600
H     -0.411800    1.632100    1.246100
H      0.409300   -0.187000   -0.905700
H     -1.772400   -0.443700    1.032800
H     -2.039900   -0.268200   -0.699800
H     -0.449500   -2.511800    0.649600
H     -2.505300   -3.976300   -0.089500
