18
gdb_8091
O     -0.042100    1.415400   -0.059800
C      0.004600    0.017900    0.042100
C      0.255500   -0.700300    1.402600
C     -0.667500   -1.808600    0.816300
C     -1.358800   -0.694300   -0.017200
C      0.158400   -2.697700   -0.120600
O      1.227900   -1.970900   -0.716800
C      0.932200   -0.615000   -1.013000
H      0.856100    1.758000    0.011100
H      1.280900   -0.967800    1.668700
H     -0.227900   -0.160100    2.219600
H     -1.281900   -2.402400    1.495300
H     -2.110100   -0.151500    0.561600
H     -1.760400   -0.952400   -1.002300
H      0.632800   -3.519100    0.427400
H     -0.494100   -3.138500   -0.892400
H      0.477600   -0.506300   -2.011000
H      1.899000   -0.093900   -1.025700
