16
gdb_16416
O      0.050900    1.398300   -0.046800
C      0.049600   -0.023700   -0.042500
C      0.760900   -0.559900    1.189200
C      0.048000   -1.233100    2.093700
C     -1.414400   -1.439500    1.762400
C     -1.528100   -2.028700    0.332800
C     -1.399600   -0.539200   -0.041800
O     -1.960200   -0.174000    1.256900
H     -0.479600    1.650800    0.721100
H      0.566500   -0.325700   -0.961100
H      1.812100   -0.320800    1.314900
H      0.469100   -1.634800    3.009500
H     -2.015000   -1.850700    2.575200
H     -0.758700   -2.729300    0.005800
H     -2.527000   -2.411100    0.113800
H     -1.975700   -0.129500   -0.875000
