13
gdb_5171
O     -0.054600   -0.152900   -0.248800
C      0.016900    1.045200   -0.238600
C      1.333200    1.822200   -0.219100
C      1.335000    2.955600   -1.183500
N      1.173600    4.219600   -0.946000
C      1.218900    4.819100   -2.198900
C      1.404800    3.864600   -3.138900
O      1.477400    2.657600   -2.502200
H     -0.890500    1.688500   -0.226500
H      1.450600    2.249000    0.783300
H      2.150600    1.122300   -0.408900
H      1.118200    5.885200   -2.323500
H      1.506000    3.851400   -4.210100
