13
gdb_4664
C      0.065500    1.475900   -0.018900
C     -0.061100   -0.002800    0.006300
N     -1.107800   -0.733500   -0.178800
C     -0.656800   -2.046400   -0.043400
C     -1.497400   -3.239900   -0.171300
O     -2.680500   -3.240500   -0.408800
C      0.678600   -2.019500    0.223800
O      1.079400   -0.727300    0.260000
H      0.775400    1.795000   -0.788600
H     -0.912100    1.908600   -0.230700
H      0.426700    1.854400    0.942500
H     -0.932700   -4.189000   -0.025500
H      1.430400   -2.770700    0.400400
