13
gdb_2452
O      0.017100    0.037700   -0.374400
C     -0.039500    1.173200   -0.009800
C     -1.285700    2.046400    0.189300
C     -0.757400    3.344800    0.755100
C      0.006300    3.272500    2.065600
C      0.740500    3.189400    0.761600
O      1.080600    1.892200    0.314000
H     -1.772200    2.181800   -0.781800
H     -1.991600    1.514800    0.833600
H     -1.222100    4.280100    0.470500
H      0.098400    4.190800    2.634900
H     -0.060800    2.369200    2.664200
H      1.447000    3.940100    0.432800
