15
gdb_100
C     -0.051900    1.552200   -0.103200
C      0.012300    0.046900    0.037500
C      1.301200   -0.706600   -0.197300
C      0.704300   -0.648900    1.190000
C      1.397500    0.094800    2.310800
H      0.874000    2.035400    0.221600
H     -0.216400    1.837000   -1.148500
H     -0.871600    1.976700    0.488000
H     -0.885100   -0.456000   -0.315800
H      1.276600   -1.641500   -0.747000
H      2.194200   -0.114000   -0.375700
H      0.216700   -1.563800    1.519000
H      1.913200    0.990500    1.952700
H      0.687400    0.409000    3.084500
H      2.149300   -0.541500    2.791100
