14
gdb_4935
C     -0.002800    1.404700   -0.027400
O     -0.013500   -0.019800   -0.029300
C      0.607900   -0.618700   -1.057100
C      0.736800   -1.952500   -1.256200
O      1.450600   -2.103300   -2.447700
C      1.684600   -0.849300   -2.856200
N      2.440400   -0.693000   -3.989900
N      1.212200    0.088100   -2.086300
H      1.019300    1.795200    0.002500
H     -0.504600    1.808000   -0.912600
H     -0.541600    1.701600    0.873800
H      0.435400   -2.847100   -0.747000
H      2.372400   -1.453600   -4.650000
H      2.343300    0.219100   -4.409800
