16
gdb_9084
O     -0.006800    1.428600   -0.077500
C      0.024900    0.007900    0.034300
C      0.632000   -0.650600   -1.222900
C     -0.123900   -0.251600   -2.498800
C      0.609200   -0.681300   -3.746900
O      0.143500   -1.355100   -4.628800
C      0.729000   -0.424100    1.243500
C      1.350900   -0.757700    2.216600
H      0.878700    1.755100    0.118700
H     -1.029000   -0.288900    0.107900
H      1.685500   -0.350200   -1.294600
H      0.622500   -1.738100   -1.091900
H     -1.133600   -0.672000   -2.521000
H     -0.206100    0.843800   -2.514900
H      1.663100   -0.316200   -3.802700
H      1.880600   -1.056500    3.087700
