14
gdb_19247
O     -0.014600    1.391500    0.196900
C      0.016400    0.016800    0.036900
C     -1.328900   -0.723400    0.050600
N     -2.075800   -0.114400   -1.075000
C     -1.133400   -1.222300   -1.336100
C      0.258000   -0.583400   -1.438300
C      0.489400    0.360400   -2.517000
N      0.672400    1.120800   -3.368100
H     -0.752000    1.713300   -0.341600
H      0.751600   -0.386800    0.734600
H     -1.843500   -1.167900    0.892700
H     -3.021000   -0.492300   -1.075800
H     -1.458900   -2.144500   -1.798400
H      1.056500   -1.328900   -1.415900
