20
gdb_9256
C     -0.199100    1.376200    0.016500
O      0.021200   -0.013300   -0.013100
C      0.693800   -0.533600    1.122800
C     -0.264600   -0.747600    2.297600
C      1.341700   -1.857300    0.678300
C      2.399300   -1.685200   -0.310700
C      3.283000   -1.535800   -1.114300
C      4.345200   -1.359200   -2.094400
H      0.743900    1.934400    0.124100
H     -0.660800    1.648200   -0.936200
H     -0.875300    1.684100    0.828400
H      1.493700    0.162100    1.423500
H     -1.044900   -1.465700    2.025700
H      0.271400   -1.129500    3.172500
H     -0.749700    0.188200    2.588700
H      1.737800   -2.368600    1.564700
H      0.546800   -2.498400    0.275600
H      4.318900   -2.146100   -2.856600
H      4.253700   -0.397600   -2.612000
H      5.335000   -1.388300   -1.624800
