15
gdb_13807
N     -0.564600    1.661600    0.604600
H     -0.946900    1.627700   -0.334200
H      0.420000    1.900000    0.541900
H     -1.257700    2.725600    1.719200
C     -0.725100    0.368400    1.281700
C     -0.211100    0.442200    2.714300
O      0.658400    1.524200    3.023900
C     -0.590600    1.446500    3.734100
C     -1.638500    2.541500    3.611800
O     -2.300600    2.805600    4.585400
O     -1.784900    3.163400    2.451300
H     -1.787700    0.101500    1.281100
H     -0.189200   -0.443900    0.769900
H      0.112600   -0.523000    3.107700
H     -0.486800    1.150800    4.776100
