15
gdb_5413
O      0.021600    1.429200    0.008400
C     -0.003900    0.013600    0.003500
C     -1.433600   -0.474700    0.014300
N     -1.574400   -1.805800    0.012400
C     -2.813200   -2.298300    0.021400
C     -3.959500   -1.507100    0.032600
C     -3.800800   -0.125800    0.034500
C     -2.514900    0.405000    0.025200
H      0.939600    1.712300    0.000800
H      0.495300   -0.401600   -0.885800
H      0.510800   -0.408100    0.880900
H     -2.895700   -3.383100    0.019500
H     -4.942200   -1.965000    0.039600
H     -4.665000    0.530900    0.043200
H     -2.336000    1.471900    0.026200
