20
gdb_19745
C     -0.021000    1.500100   -0.015200
C      1.510600    1.799200   -0.030200
C      2.042500    0.362800    0.017200
C      1.143300   -0.438700   -0.979800
C      1.434300   -1.913900   -0.683900
C      1.439200   -1.860600    0.875800
C      1.149700   -0.368600    1.072100
C      0.027600   -0.030700    0.036900
H     -0.526900    1.930200    0.854900
H     -0.532400    1.870000   -0.909400
H      1.828300    2.331000   -0.932500
H      1.833700    2.391300    0.831800
H      3.126600    0.222100    0.018700
H      1.073700   -0.134600   -2.027500
H      0.660800   -2.578500   -1.081400
H      2.393300   -2.240100   -1.098400
H      0.668300   -2.496400    1.322500
H      2.400800   -2.158000    1.305600
H      1.086400    0.006200    2.097100
H     -0.923700   -0.568900    0.058200
