18
gdb_13459
C     -0.337500    1.422800   -0.004700
C     -0.374500   -0.049500    0.361400
O     -1.245100   -0.714300   -0.560700
C     -1.389200   -2.077000   -0.329300
C     -2.265700   -2.548100    0.829000
O     -2.835100   -1.607200    1.679400
C     -2.790700   -2.575300   -0.592500
O     -3.751500   -1.593600   -0.866600
H      0.334300    1.962100    0.669600
H      0.017600    1.559300   -1.030200
H     -1.334200    1.866500    0.077000
H      0.630400   -0.492400    0.291000
H     -0.745900   -0.200700    1.380800
H     -0.540300   -2.694800   -0.624500
H     -2.001600   -3.480000    1.322000
H     -3.593300   -1.247800    1.192600
H     -2.960100   -3.510000   -1.118000
H     -3.255600   -0.799900   -1.117200
