17
gdb_13131
O     -0.176100    1.488200    0.224100
C      0.043400    0.097200    0.035300
C     -1.318500   -0.568000   -0.131700
N     -2.021200   -0.146000   -1.316400
C     -2.667400    1.115300   -1.699100
C     -3.100200    0.412500   -3.017600
C     -2.378400   -0.833500   -2.451700
O     -2.176700   -1.968700   -2.800100
H      0.677700    1.928000    0.268300
H      0.655500   -0.096600   -0.857900
H      0.554600   -0.350500    0.902300
H     -1.189400   -1.652000   -0.211600
H     -1.925300   -0.358600    0.759400
H     -3.488000    1.407400   -1.034200
H     -1.972100    1.950900   -1.804000
H     -4.175300    0.283400   -3.153800
H     -2.660600    0.810900   -3.933700
