16
gdb_3265
C     -0.038200    1.503900   -0.107900
C      1.337700    2.158300    0.001400
C      2.268900    1.825500   -1.169100
N      2.655000    0.445500   -1.399000
C      1.914300   -0.570000   -1.327400
O      0.616800   -0.761400   -0.955800
C      0.010500   -0.003800    0.095200
H     -0.707100    1.910200    0.661100
H     -0.497300    1.728600   -1.079300
H      1.230500    3.249000    0.042600
H      1.812500    1.854700    0.944000
H      1.805500    2.190400   -2.099000
H      3.194700    2.400200   -1.053300
H      2.313100   -1.529500   -1.661700
H      0.535800   -0.230700    1.034200
H     -0.999700   -0.415400    0.167000
