15
gdb_1000
C      0.023200    1.443500    0.035600
N      0.006100   -0.003500    0.027400
C     -0.031500   -0.808800   -1.076700
N     -0.038400   -2.082700   -0.765600
C     -0.003600   -2.109300    0.608800
C      0.024500   -0.840100    1.131200
C      0.066200   -0.338100    2.534000
H      0.928900    1.826800    0.516900
H      0.001300    1.802700   -0.995000
H     -0.847500    1.847700    0.562100
H     -0.052200   -0.395500   -2.075100
H     -0.000600   -3.041100    1.155400
H      0.962000    0.261900    2.738700
H     -0.803500    0.282900    2.783700
H      0.073700   -1.185200    3.223700
