12
gdb_11166
N     -0.034700    1.284000   -0.001700
C     -0.035900    0.030800   -0.037000
C     -1.240500   -0.876900   -0.157200
O     -0.674200   -2.149300   -0.473700
C      0.624400   -2.134100    0.040400
O      1.074400   -0.786800    0.017900
C      0.672800   -2.651900    1.436200
N      0.705000   -3.073700    2.510500
H      0.907700    1.660200    0.105600
H     -1.799900   -0.908900    0.786800
H     -1.907600   -0.577100   -0.965400
H      1.272400   -2.741400   -0.596900
