15
gdb_5297
C     -0.011800    1.510600    0.008300
C      0.060400   -0.001200    0.001600
O      1.099500   -0.616100   -0.008700
N     -1.172900   -0.680300    0.008800
C     -2.454800   -0.136900    0.021100
C     -3.351000   -1.164900    0.024300
C     -2.603800   -2.390200    0.013600
C     -1.279600   -2.066200    0.004300
H      1.006800    1.895800    0.001700
H     -0.548300    1.882500   -0.869800
H     -0.534000    1.875300    0.897900
H     -2.606400    0.928600    0.026400
H     -4.425800   -1.064600    0.033200
H     -3.008700   -3.390700    0.012900
H     -0.382900   -2.661000   -0.005200
