14
gdb_8028
O      0.127900    1.449500   -0.225400
C      0.025800    0.080900   -0.003300
C      0.326400   -0.906100   -1.147900
O     -0.915300   -1.614000   -0.904900
C     -1.369500   -0.624300    0.050500
C     -1.026600   -1.126900    1.469300
O     -1.605100   -1.768400    2.293200
C      0.371400   -0.465300    1.415600
H      1.029500    1.730000   -0.034600
H      0.323000   -0.425900   -2.133900
H      1.202700   -1.556800   -1.049100
H     -2.339000   -0.183700   -0.191100
H      1.235400   -1.127000    1.519400
H      0.441200    0.341100    2.153800
