8
gdb_789
O      0.115200    1.313500   -0.090100
C      0.065800   -0.015600   -0.071500
N     -0.051900   -0.716800   -1.171200
O     -0.061700   -2.037600   -0.676300
C      0.051000   -1.950600    0.643100
N      0.134600   -0.739500    1.097100
H      0.202000    1.608900    0.824700
H      0.061900   -2.874200    1.203400
