16
gdb_10256
C     -0.026900    1.552000    0.000400
C      0.009500    0.020700   -0.033200
C      0.720800   -0.501400   -1.285700
C      0.707500   -0.533300    1.257100
C      0.054400   -0.054600    2.483800
N     -0.464800    0.349400    3.432600
C      0.763100   -2.002100    1.264200
N      0.810700   -3.155400    1.237900
H      0.986900    1.969200    0.000800
H     -0.540300    1.929900   -0.887900
H     -0.552400    1.929900    0.881100
H     -1.017700   -0.361100   -0.020700
H      1.757600   -0.147600   -1.325000
H      0.730600   -1.593600   -1.325700
H      0.211400   -0.134600   -2.181000
H      1.742600   -0.163900    1.268700
