15
gdb_15542
C      0.063000    1.391600    0.093800
N     -0.165700   -0.038200    0.051600
C      0.034900   -0.826800   -1.068300
N      0.141000   -2.086300   -0.904300
C      0.018700   -2.319900    0.540700
C      0.066400   -0.899600    1.213100
C      1.360800   -0.615700    1.862500
N      2.373600   -0.382200    2.368600
H      1.085800    1.645800    0.403900
H     -0.113000    1.804900   -0.902200
H     -0.637100    1.870200    0.786400
H      0.055200   -0.341700   -2.040200
H     -0.940800   -2.803400    0.756200
H      0.813600   -2.973500    0.905500
H     -0.717700   -0.771100    1.966400
