19
gdb_16430
C     -0.178200    1.610200   -0.021200
C     -0.026400    0.099000    0.016500
C      1.193900   -0.566400   -0.628600
C      2.160700   -0.238900    0.547300
C      2.524100   -1.715200    0.627400
N      1.043500   -1.818100    0.275500
C      0.754400   -0.565300    1.167200
C      0.370200   -0.700000    2.610800
H      0.763000    2.118600    0.214200
H     -0.499900    1.948000   -1.012200
H     -0.930000    1.948500    0.700000
H     -0.967300   -0.416400   -0.212300
H      1.453800   -0.685300   -1.682800
H      2.779100    0.653100    0.695000
H      3.181300   -2.125100   -0.147000
H      2.778400   -2.142000    1.603100
H      1.116700   -1.269400    3.174300
H      0.276100    0.286300    3.078200
H     -0.591400   -1.215200    2.703300
