16
gdb_468
C     -0.113700    1.538900    0.001900
C      0.082200    0.025600    0.008500
C      0.902000   -0.539400   -1.164200
C      1.357100   -1.898100   -0.618600
O      1.421000   -1.767500    0.803900
C      0.892500   -0.506500    1.198500
H      0.851300    2.058600   -0.011400
H     -0.679900    1.862600   -0.877300
H     -0.661400    1.874600    0.889000
H     -0.899400   -0.466700    0.014500
H      0.331500   -0.624900   -2.092800
H      1.765400    0.108400   -1.358800
H      0.639200   -2.691000   -0.874900
H      2.340200   -2.202800   -0.996400
H      1.711700    0.190100    1.445000
H      0.289300   -0.647300    2.102600
