9
gdb_21753
O     -0.068900    1.344700    0.009900
C      1.259500    1.702500   -0.000700
N      2.111000    0.729600   -0.014200
N      1.274700   -0.358300   -0.012300
N      1.359300   -1.704600   -0.020600
N      0.114100   -2.091600   -0.010900
N     -0.793200   -1.052500    0.003500
C     -0.015400   -0.005100    0.001900
H      1.486400    2.755900    0.003000
