15
gdb_17440
O      0.087900    1.454600    0.046200
C      0.057300    0.057200   -0.058900
C     -1.252800   -0.719300   -0.053200
C     -0.708400   -1.755700   -0.961400
N     -1.769900   -0.849200   -1.468200
C     -0.764000   -0.132000   -2.325100
C      0.354500   -0.649000   -1.411400
O      1.675100   -0.773700   -1.776700
H     -0.654200    1.817600   -0.447100
H      0.739300   -0.330000    0.703200
H     -1.987200   -0.813000    0.735800
H     -0.759600   -2.835800   -0.954000
H     -0.766700   -0.602100   -3.313600
H     -0.899500    0.951600   -2.437600
H      1.722400   -1.138300   -2.667100
