10
gdb_5471
O      0.128900    1.365100    0.042400
C      0.081100    0.037000   -0.020900
C      0.013200   -0.744700   -1.145400
O     -0.015800   -2.059000   -0.702800
C      0.036100   -1.967100    0.628000
N      0.094700   -0.757300    1.099000
C     -0.027700   -0.473800   -2.519600
N     -0.060800   -0.231400   -3.652900
H      0.171500    1.612100    0.975600
H      0.024600   -2.891600    1.184100
