13
gdb_5011
O      0.062600    1.312800   -0.155700
C     -0.014600   -0.021000   -0.041000
C     -1.170900   -0.715900    0.069200
C     -1.103900   -2.147200    0.185500
C      0.088800   -2.761500    0.182800
O      1.264200   -2.073000    0.072200
C      1.273800   -0.713300   -0.041600
N      2.342300   -0.024000   -0.147200
H      1.019500    1.503500   -0.214900
H     -2.122200   -0.198400    0.069100
H     -2.005100   -2.739400    0.275600
H      0.264100   -3.824600    0.263500
H      3.184600   -0.594200   -0.137600
