18
gdb_18254
O     -0.074900    1.493800   -0.009200
C      0.055300    0.080100    0.069500
C     -1.347300   -0.520400   -0.034000
C     -2.046200   -0.240900   -1.352500
C     -2.550300   -1.348900   -1.900700
C     -2.218900   -2.563900   -1.099100
C     -0.738600   -2.880400   -1.013300
C     -1.390500   -2.048000    0.066100
H      0.805900    1.878900    0.004300
H      0.688800   -0.307100   -0.742400
H      0.514800   -0.224100    1.023500
H     -1.928900   -0.079300    0.788900
H     -2.089800    0.756800   -1.771200
H     -3.100800   -1.394700   -2.834000
H     -2.937700   -3.368800   -0.991200
H     -0.454300   -3.890700   -0.736200
H     -0.082000   -2.408900   -1.736600
H     -1.483200   -2.496400    1.048300
