18
gdb_15053
C      0.126100    1.359300   -0.033700
O     -0.167000    0.001600   -0.289600
C      0.711900   -0.615800   -1.217700
C      2.090200   -0.691900   -0.705500
C      3.211400   -0.758300   -0.276800
C      0.160200   -1.990900   -1.526000
C     -0.945400   -2.132800   -2.536500
C      0.442900   -2.623800   -2.862800
H      1.119700    1.486900    0.416600
H      0.080500    1.962700   -0.954300
H     -0.633000    1.720900    0.663600
H      0.726900   -0.026300   -2.152600
H      4.203800   -0.819100    0.096700
H      0.133600   -2.646200   -0.661800
H     -1.722400   -2.862900   -2.341100
H     -1.296300   -1.232400   -3.029800
H      1.027700   -2.057000   -3.580000
H      0.625300   -3.691800   -2.891500
