18
gdb_15672
O     -0.297800    1.551600    0.153300
C     -0.088000    0.163000    0.382900
C     -1.323900   -0.572200   -0.109100
C     -1.618900   -0.405900   -1.622200
C     -2.169800   -1.755100   -2.013100
C     -2.033600   -2.663900   -1.046500
C     -1.289200   -2.109400    0.144300
O      0.027100   -2.669000    0.244100
H      0.495600    2.021900    0.425200
H      0.801500   -0.199300   -0.153500
H      0.073200   -0.047800    1.451100
H     -2.183800   -0.174000    0.441600
H     -2.322100    0.410200   -1.815500
H     -0.715200   -0.163200   -2.199100
H     -2.614600   -1.943200   -2.985200
H     -2.330000   -3.705400   -1.103200
H     -1.753300   -2.359400    1.103800
H      0.379700   -2.726100   -0.650900
