11
gdb_21637
N     -0.060900    1.329500    0.138300
C     -0.033600   -0.029800    0.046900
N     -1.089800   -0.820000    0.037400
N     -0.499800   -2.037300   -0.001300
C     -1.264900   -3.230600   -0.023700
O     -0.791200   -4.324700   -0.062900
N      0.838800   -1.984500   -0.019800
N      1.153800   -0.732500    0.009900
H      0.780400    1.792800   -0.167400
H     -0.920200    1.776100   -0.140100
H     -2.336100   -2.977300    0.000400
