13
gdb_4990
O      0.080700    1.367800   -0.085900
C      0.062600    0.017100   -0.058500
C     -0.023300   -0.723700   -1.229600
C     -0.038200   -2.113900   -1.139400
N      0.025300   -2.789300    0.009200
C      0.108100   -2.068200    1.131700
C      0.130000   -0.681800    1.155000
O      0.213600    0.088400    2.285700
H      0.144900    1.681300    0.826000
H     -0.076900   -0.216000   -2.185300
H     -0.104900   -2.710900   -2.045100
H      0.159700   -2.621700    2.070100
H      0.255200   -0.477300    3.063300
