12
gdb_876
N     -0.016300    1.375700   -0.000900
C     -0.099400   -0.009000    0.004700
C     -1.117300   -0.886600    0.121900
N     -0.648900   -2.198000    0.077300
C      0.632500   -2.054000   -0.076400
N      1.568000   -3.044600   -0.257600
O      1.074200   -0.783300   -0.129800
H      0.514800    1.746900    0.780500
H      0.379000    1.745500   -0.859500
H     -2.164700   -0.659800    0.241500
H      1.232300   -3.949400    0.039300
H      2.489000   -2.824700    0.092600
