19
gdb_7373
C      0.011800    1.533000    0.036000
N     -0.094100    0.084700   -0.005800
C     -0.126100   -0.605900    1.293000
C     -1.516300   -1.076200    1.738100
O     -1.935200   -2.267500    1.122300
C     -0.132100   -0.658200   -1.146500
C      0.073400    0.042900   -2.479200
O     -0.320700   -1.873200   -1.111900
H     -0.077500    1.960800   -0.960400
H     -0.790200    1.953900    0.653500
H      0.971600    1.850300    0.464800
H      0.538800   -1.474100    1.243500
H      0.279100    0.093400    2.031100
H     -1.485900   -1.251000    2.822800
H     -2.235800   -0.253600    1.569700
H     -1.476400   -2.328000    0.267100
H      0.988400    0.641900   -2.498900
H      0.129500   -0.730200   -3.244400
H     -0.767100    0.704200   -2.713800
