17
gdb_20189
C     -0.050100    1.458800   -0.044200
C      1.497400    1.520700    0.071300
C      2.001600    1.958800    1.443500
O      1.121200    1.511200    2.462700
C      0.878100    0.114700    2.465700
C      0.742100   -0.535600    1.101100
C      1.458900   -0.008500   -0.071600
N     -0.058100   -0.049100   -0.049900
H     -0.634300    1.918200    0.755900
H     -0.417400    1.802400   -1.013500
H      2.003300    2.053700   -0.735100
H      3.026300    1.584300    1.609900
H      2.018500    3.049100    1.536800
H      1.696400   -0.414400    2.986400
H     -0.032400   -0.026500    3.058200
H      0.666500   -1.618800    1.171600
H      2.048400   -0.610200   -0.756000
