16
gdb_14112
C      0.459700    0.559200   -1.038900
C     -0.131800    0.335000    0.336200
O      0.392800    0.725200    1.357500
C     -1.421500   -0.401400    0.407000
C     -2.325200   -0.620600    1.625800
C     -2.712600   -2.023300    1.040600
C     -1.793300   -1.734700   -0.152800
O     -2.231500   -0.535300   -0.773000
H      1.463600    0.972500   -0.936600
H      0.488200   -0.370100   -1.616300
H     -0.172900    1.254100   -1.601300
H     -1.753200   -0.687000    2.551500
H     -3.128600    0.109900    1.736700
H     -2.359900   -2.849600    1.661100
H     -3.761100   -2.182200    0.779200
H     -1.210800   -2.421900   -0.757100
