19
gdb_15200
O     -1.303900    1.787200   -0.298600
C     -0.780300    0.557400    0.170200
C     -1.739700   -0.594400   -0.080300
O     -1.939300   -0.678800   -1.485300
C     -3.022700   -1.505700   -1.880600
C     -4.265700   -0.717000   -2.247900
C     -4.531900    0.641500   -1.716400
N     -4.156000    0.449300   -3.133700
H     -1.451900    1.670100   -1.243400
H      0.190400    0.331900   -0.297200
H     -0.617200    0.669100    1.246800
H     -1.319300   -1.536900    0.305400
H     -2.691300   -0.403300    0.435200
H     -2.686700   -2.073300   -2.758600
H     -3.260400   -2.236600   -1.094900
H     -5.117900   -1.356300   -2.476600
H     -5.556900    0.964900   -1.558000
H     -3.802000    1.094500   -1.053400
H     -3.168100    0.677800   -3.235500
