19
gdb_19756
C     -0.125100    1.550000    0.045900
C      0.044700    0.038200   -0.011300
C      0.963000   -0.550600   -1.111100
C      2.356200   -0.110400   -0.611000
C      2.170600   -0.589900    0.824100
C      1.297800   -1.797500    0.774300
C      0.944700   -2.037800   -0.691300
N      0.733700   -0.491900    1.199200
H      0.831500    2.070600    0.141100
H     -0.625900    1.916100   -0.856500
H     -0.735500    1.824300    0.911100
H     -0.947700   -0.426500   -0.060500
H      0.711900   -0.325600   -2.146600
H      3.168800   -0.637600   -1.121600
H      2.539300    0.963600   -0.694800
H      2.895800   -0.407800    1.607500
H      1.325500   -2.589900    1.512400
H     -0.034800   -2.507800   -0.825500
H      1.696000   -2.642300   -1.209800
