21
gdb_5843
C     -0.096900    1.505200    0.230700
N     -0.186500    0.065100    0.376400
C     -1.059300   -0.688800   -0.351100
O     -1.819400   -0.196900   -1.170600
C     -1.058400   -2.216300   -0.103100
C     -2.488000   -2.594900    0.336500
C     -0.742600   -2.885300   -1.457000
C     -0.049600   -2.691100    0.955500
H     -0.330300    2.016600    1.171500
H      0.903900    1.811700   -0.093900
H     -0.824200    1.799900   -0.526200
H      0.418200   -0.387700    1.038200
H     -3.214700   -2.225500   -0.389700
H     -2.586100   -3.682700    0.416200
H     -2.731200   -2.161500    1.312900
H      0.280000   -2.662800   -1.781100
H     -0.842000   -3.972900   -1.376400
H     -1.428900   -2.522300   -2.224600
H     -0.251000   -2.256100    1.941300
H     -0.114900   -3.778100    1.067800
H      0.984100   -2.461400    0.672400
