17
gdb_2178
C      0.029900    1.567400   -0.032900
C      0.049900    0.054400    0.115600
O      0.536400   -0.543600   -1.094200
C      1.450000   -1.595900   -0.796800
C      1.278000   -1.891800    0.697800
C      0.935400   -0.499300    1.244800
O      2.090000    0.321600    1.362700
H      1.043300    1.951900   -0.156500
H     -0.565900    1.843400   -0.907000
H     -0.416600    2.034200    0.851100
H     -0.976200   -0.307200    0.293500
H      1.222500   -2.457400   -1.434000
H      2.476700   -1.268800   -1.012200
H      0.439400   -2.575900    0.867200
H      2.169000   -2.324400    1.162300
H      0.384900   -0.537700    2.195100
H      2.677700   -0.083600    2.007500
