20
gdb_17629
C     -0.008900    1.543800   -0.061400
C      0.024200    0.018100   -0.027600
O      0.672000   -0.523500   -1.173600
C      0.642900   -0.521100    1.281200
O     -0.088800   -0.026100    2.404900
C      0.749000   -2.029400    1.289500
C      2.039700   -2.719400    0.935100
C      1.560700   -2.711600    2.363200
H      1.011700    1.949100   -0.051900
H     -0.505900    1.895200   -0.969600
H     -0.530600    1.936700    0.813900
H     -1.003900   -0.366600   -0.085800
H      1.557800   -0.146600   -1.214200
H      1.649500   -0.091300    1.394500
H     -0.864600   -0.586200    2.514800
H     -0.160300   -2.537200    0.971800
H      1.985900   -3.643100    0.370500
H      2.892500   -2.098000    0.682800
H      2.078200   -2.077100    3.074600
H      1.182000   -3.635400    2.786300
