16
gdb_8099
C     -0.040800    1.556300    0.034300
C      0.085900    0.050100    0.155100
C      1.344800   -0.755700   -0.224200
C      2.568300   -0.104600    0.326400
O      3.660700    0.115700   -0.119300
C      1.999400   -0.024500    1.768700
C      0.739800   -0.708900    1.242800
O      0.155900   -1.693600    2.002600
H      0.848800    2.074600    0.400500
H     -0.183200    1.844500   -1.012200
H     -0.901500    1.922400    0.604500
H     -0.792500   -0.478500   -0.223400
H      1.309600   -1.494600   -1.016200
H      2.572200   -0.692300    2.419000
H      1.899400    0.952200    2.250300
H     -0.728300   -1.871800    1.665800
