14
gdb_16885
O      0.047800    0.168400    0.617000
C     -0.017000    1.191900    0.008600
O     -1.192000    1.845400   -0.155700
C     -1.386000    2.742400   -1.261900
C     -0.223800    3.687700   -1.423100
C      0.470800    4.202800   -0.177100
C      1.077200    3.097700   -0.995600
O      1.089200    1.765300   -0.518700
H     -1.528200    2.152700   -2.176800
H     -2.321700    3.261300   -1.039400
H     -0.253600    4.312200   -2.309900
H      0.946100    5.176000   -0.217300
H      0.041200    3.942600    0.784000
H      1.990100    3.272400   -1.550000
