18
gdb_17173
C     -0.060800    1.539800    0.005300
C      0.096100    0.014900   -0.042500
C      0.782700   -0.472000   -1.284000
N      2.208600   -0.152800   -1.654200
C      1.729900   -1.019900   -2.778400
C      0.918600   -1.934400   -1.811700
N     -0.379600   -1.851100   -2.559100
C      0.250600   -0.506000   -2.764400
H      0.912800    2.040500   -0.016900
H     -0.647600    1.904700   -0.844400
H     -0.571300    1.851100    0.921300
H      0.666900   -0.328800    0.828800
H     -0.885900   -0.470300    0.004300
H      2.280600    0.818500   -1.970200
H      2.354400   -1.304600   -3.627700
H      1.252500   -2.816900   -1.265400
H     -0.323100   -2.401200   -3.420400
H     -0.209700    0.293800   -3.349400
