12
gdb_2509
C     -0.149000    1.381200   -0.087000
O      0.181200    0.010600    0.087300
C      0.728300   -0.586200   -1.065500
C      1.253400   -1.907200   -0.726700
C      1.707300   -2.986300   -0.467100
C     -0.278800   -0.689700   -2.156800
N     -1.067500   -0.726200   -2.999700
H      0.734400    1.970600   -0.373200
H     -0.930600    1.517300   -0.845700
H     -0.518400    1.731800    0.877600
H      1.552300    0.034100   -1.461100
H      2.101000   -3.944900   -0.231900
