11
gdb_4246
N     -0.090000    1.312500    0.139700
C      0.027700    0.061800   -0.026000
N     -1.133900   -0.723600   -0.087900
C     -1.190700   -2.075300   -0.260700
O     -2.176000   -2.745800   -0.313800
O      0.064700   -2.672000   -0.380800
C      1.173800   -1.895000   -0.318200
N      1.236600   -0.638000   -0.157800
H      0.836500    1.735600    0.162800
H     -2.018700   -0.244000    0.004300
H      2.068500   -2.501000   -0.427100
