16
gdb_1765
C     -0.065200    1.528600   -0.095000
C      0.004000    0.029000    0.062300
N      1.302700   -0.621800   -0.147700
C      0.687600   -0.670500    1.205800
C      1.431400    0.075400    2.298800
C      0.107100   -1.924800    1.621100
C     -0.355100   -2.977500    1.977000
H      0.850200    2.013400    0.248800
H     -0.200200    1.787600   -1.150700
H     -0.912700    1.940100    0.463400
H     -0.869900   -0.497800   -0.317700
H      1.183200   -1.519500   -0.610100
H      1.895100    0.980400    1.904200
H      0.752500    0.347300    3.112900
H      2.221900   -0.557400    2.713100
H     -0.770000   -3.903800    2.288700
