17
gdb_1628
C      0.037300    1.592900    0.132700
C     -0.007000    0.069900    0.022600
O      0.752700   -0.546000    1.062200
C     -1.434700   -0.510500    0.001400
C     -2.220500   -0.151000   -1.272800
C     -1.346700   -2.024200    0.112800
O     -1.964800   -2.692900    0.898900
H      1.076400    1.925200    0.201900
H     -0.421700    2.079700   -0.732500
H     -0.492100    1.933600    1.030900
H      0.505700   -0.237300   -0.898400
H      0.333900   -0.332700    1.904200
H     -1.985100   -0.157700    0.883300
H     -3.223900   -0.585000   -1.244100
H     -2.326600    0.931600   -1.380100
H     -1.713900   -0.529700   -2.167800
H     -0.668900   -2.494600   -0.637700
