14
gdb_3669
C      0.047500    1.501100   -0.017700
C     -0.087900    0.020500    0.036100
C     -1.117900   -0.836800   -0.191500
C     -0.556500   -2.127400    0.039800
C     -1.217600   -3.464800   -0.058200
N      0.708600   -2.041700    0.378200
O      1.010300   -0.678100    0.376900
H      0.809900    1.798600   -0.745000
H     -0.902200    1.957000   -0.303500
H      0.348100    1.902700    0.955600
H     -2.127000   -0.592200   -0.480200
H     -1.603100   -3.638400   -1.068300
H     -0.503500   -4.254200    0.183700
H     -2.064700   -3.534900    0.632000
