15
gdb_20831
C     -0.205400    1.524800    0.066000
C      0.077500    0.015900    0.005400
C      0.807700   -0.480400    1.211000
N      1.971400   -0.035800    1.669700
C      2.178500   -0.811500    2.767400
O      3.265900   -0.685800    3.539900
N      1.244200   -1.704100    3.036600
N      0.368600   -1.466300    2.014000
H      0.727600    2.079900    0.187900
H     -0.694500    1.860500   -0.852700
H     -0.856400    1.769600    0.910500
H     -0.857700   -0.545100   -0.103500
H      0.681000   -0.206100   -0.882700
H      3.797600    0.017800    3.149200
H     -0.473700   -2.012700    1.946300
