14
gdb_20587
C     -0.001600    1.512300    0.083800
C      0.011200    0.025100   -0.055700
C     -0.016200   -0.814200   -1.170000
C     -0.100400   -0.441200   -2.573300
O     -0.111700   -1.228300   -3.495900
C      0.050200   -2.129200   -0.632000
N      0.112500   -2.121300    0.686200
N      0.088300   -0.801100    1.008800
H      1.007800    1.908100    0.245200
H     -0.401300    1.982300   -0.816400
H     -0.621400    1.826100    0.929800
H     -0.157300    0.654500   -2.765500
H      0.049200   -3.059700   -1.178900
H      0.122200   -0.541400    1.981400
