17
gdb_1345
C     -0.093200    1.542000   -0.008200
C      0.009900    0.013900   -0.011900
O     -1.291800   -0.568600   -0.030000
C      0.909100   -0.476400   -1.191700
C      2.230200   -0.785000   -0.535200
C      2.134000   -0.796200    0.793700
C      0.734100   -0.497900    1.263000
H      0.900200    1.997600    0.058300
H     -0.563400    1.904200   -0.931100
H     -0.692400    1.882300    0.841600
H     -1.777100   -0.186300   -0.768900
H      0.465800   -1.377200   -1.637100
H      0.988900    0.269200   -1.992900
H      3.130500   -0.999500   -1.100800
H      2.944300   -1.020700    1.478700
H      0.695100    0.232500    2.079600
H      0.229300   -1.402400    1.625400
