19
gdb_4056
C     -0.256500    1.466200    0.022700
C      0.111300   -0.014500    0.054000
C      0.859900   -0.518000   -1.199800
C      1.484700   -1.860500   -0.771200
C      1.650300   -1.727100    0.729500
C      1.061300   -0.417500    1.202600
N      2.159200   -2.566500    1.538100
O      2.628500   -3.706500    0.851800
H      0.640200    2.089500   -0.075200
H     -0.914100    1.693800   -0.823000
H     -0.775300    1.770200    0.938000
H     -0.809700   -0.605800    0.156900
H      0.208700   -0.607500   -2.073700
H      1.650400    0.198300   -1.458100
H      0.821400   -2.708600   -0.982000
H      2.434300   -2.090200   -1.262900
H      1.858800    0.334600    1.295300
H      0.580000   -0.500300    2.179800
H      2.970500   -4.246800    1.571600
