22
gdb_15426
C     -0.205800    1.538200   -0.100900
C     -0.254400    0.020200   -0.293800
C      1.020800   -0.541400   -0.935700
C      0.980500   -2.045000   -1.116300
C      0.281600   -2.656600   -2.320000
C      1.785300   -2.721100   -2.183700
O      2.578900   -1.912000   -2.993100
C      2.789200   -2.457000   -4.279000
H      0.628900    1.828800    0.547000
H     -0.072500    2.053900   -1.058500
H     -1.127100    1.914500    0.354900
H     -0.418700   -0.468000    0.676100
H     -1.117600   -0.247200   -0.916500
H      1.190900   -0.066300   -1.907700
H      1.887400   -0.274900   -0.315200
H      0.890000   -2.604700   -0.187900
H     -0.303200   -3.562100   -2.199100
H     -0.104100   -1.962000   -3.060000
H      2.232700   -3.690700   -1.955700
H      3.304300   -3.428700   -4.227800
H      1.842800   -2.597500   -4.820800
H      3.418000   -1.753100   -4.829500
