20
gdb_12072
C      0.063600    1.565300   -0.039500
C      0.023900    0.040300    0.116200
C     -1.380500   -0.554300    0.000600
O     -2.231200   -0.061100    1.028700
C     -2.098200   -0.527700   -1.403200
C     -2.276000   -2.048800   -1.315100
C     -0.934700   -2.714200   -1.214800
C     -1.525100   -2.081400    0.015000
H      1.090600    1.938200    0.011300
H     -0.355900    1.883000   -1.000900
H     -0.496900    2.067900    0.756900
H      0.670000   -0.416600   -0.641300
H      0.432000   -0.242700    1.094100
H     -2.332100    0.887900    0.900600
H     -3.038000    0.024400   -1.337400
H     -1.521600   -0.162700   -2.260800
H     -3.166400   -2.593000   -1.604300
H     -0.948500   -3.799700   -1.215300
H     -0.065900   -2.288100   -1.711500
H     -1.740100   -2.643200    0.915700
