18
gdb_6086
C     -0.405400    1.533700   -0.261700
C      0.129300    0.124500    0.032200
O     -0.902000   -0.740500    0.504100
C      0.827200   -0.438000   -1.129300
C      1.379800   -0.896900   -2.097800
C      2.024600   -1.459800   -3.289300
C      1.515500   -2.877800   -3.586900
O      1.888500   -0.604600   -4.422700
H      0.409700    2.212600   -0.528100
H     -1.113200    1.508200   -1.096700
H     -0.919200    1.918300    0.623100
H      0.834700    0.185400    0.869900
H     -1.476800   -0.936800   -0.244000
H      3.106400   -1.505900   -3.114400
H      1.714400   -3.548300   -2.746000
H      0.435200   -2.867200   -3.765000
H      2.015300   -3.262500   -4.479600
H      0.948900   -0.421000   -4.532700
