12
gdb_20767
C     -0.035600    1.483100    0.052600
C     -0.012800   -0.008500    0.042900
N     -0.035800   -0.681100   -1.078800
O     -0.004400   -2.035900   -0.723400
C      0.036700   -2.139700    0.599300
C      0.035000   -0.900500    1.170900
C      0.070900   -0.562900    2.543000
N      0.100400   -0.259800    3.660100
H      0.855500    1.879300    0.549100
H     -0.072100    1.861900   -0.969800
H     -0.907400    1.851900    0.601900
H      0.064400   -3.136400    1.011700
