18
gdb_14667
C      0.042500    1.566100    0.010000
C     -0.005200    0.027100    0.002100
C     -1.365500   -0.502000    0.012300
C     -2.501800   -0.902700    0.021100
C     -3.859000   -1.434400    0.031200
C     -3.883600   -2.986700    0.023200
C     -5.239500   -3.519400    0.033300
C     -6.370400   -3.926600    0.041800
H      1.079100    1.916000    0.002000
H     -0.466500    1.974700   -0.867100
H     -0.449700    1.965100    0.901100
H      0.526800   -0.350100   -0.880900
H      0.543600   -0.359600    0.870600
H     -4.401700   -1.078300    0.914900
H     -4.418400   -1.069000   -0.838100
H     -3.344900   -3.346700   -0.860800
H     -3.328200   -3.356000    0.893000
H     -7.362900   -4.302300    0.049200
