18
gdb_8269
C      0.466000    1.653900   -0.582700
C      0.265600    0.241200   -0.292300
C      0.105300   -0.929900   -0.057300
C     -0.109200   -2.329700    0.245700
C     -0.053900   -2.800500    1.736800
C     -1.219500   -3.772200    1.417200
O     -2.200700   -4.038900    2.383500
C     -1.561600   -2.907300    0.176300
H      1.246300    1.799700   -1.338100
H     -0.451300    2.117700   -0.962700
H      0.767800    2.207200    0.313800
H      0.560000   -2.952400   -0.358200
H      0.885500   -3.209200    2.114200
H     -0.388800   -1.996800    2.400700
H     -0.835900   -4.751300    1.113600
H     -2.564700   -3.196900    2.677300
H     -2.290600   -2.131500    0.432200
H     -1.875500   -3.404800   -0.743500
