18
gdb_11510
C     -0.474700    1.448100   -0.147100
C     -0.057100   -0.025500   -0.023400
O     -1.176500   -0.907200    0.082200
C     -1.759500   -0.951300    1.349300
C     -2.973800   -0.109600    1.661000
C     -3.099900   -1.603100    1.430700
C      0.731000   -0.450700   -1.180600
C      1.393600   -0.762500   -2.132600
H      0.410600    2.080300   -0.257700
H     -1.112000    1.582100   -1.024800
H     -1.021600    1.764300    0.743800
H      0.567800   -0.138700    0.878200
H     -1.049300   -1.135700    2.156800
H     -3.095900    0.280200    2.666000
H     -3.338300    0.537300    0.871600
H     -3.535300   -1.920800    0.490300
H     -3.310300   -2.252100    2.273100
H      1.977100   -1.051700   -2.971300
