18
gdb_9362
C      0.093000    1.347500    0.007600
O     -0.040300   -0.078800    0.000900
C     -1.309500   -0.539400    0.012100
O     -2.277500    0.177800    0.026600
C     -1.326100   -2.054500    0.003900
C     -2.739400   -2.633000    0.013800
C     -2.737300   -4.155700    0.006000
O     -4.087000   -4.591100    0.016000
H      1.164900    1.546100   -0.002600
H     -0.385200    1.785000   -0.872500
H     -0.366400    1.774900    0.902700
H     -0.761000   -2.388800   -0.875300
H     -0.745200   -2.398100    0.869200
H     -3.282400   -2.279900    0.895900
H     -3.298300   -2.271000   -0.854700
H     -2.205100   -4.524100   -0.887300
H     -2.189000   -4.533100    0.885700
H     -4.094000   -5.552600    0.010900
