17
gdb_9009
C      0.033400    1.491200    0.026000
C      0.033300    0.035800   -0.019300
C      0.050800   -1.167800   -0.056200
C      0.049400   -2.624600   -0.089600
C     -1.389500   -3.218400   -0.041900
C     -2.235500   -2.816600   -1.262900
C     -1.313900   -4.677500    0.082500
N     -1.242800   -5.827600    0.172800
H      0.868400    1.868100    0.626500
H      0.124600    1.921600   -0.977200
H     -0.892000    1.874900    0.469100
H      0.548000   -2.987300   -0.997100
H      0.623500   -3.020700    0.755900
H     -1.875300   -2.840100    0.865300
H     -2.280800   -1.727200   -1.327800
H     -1.791800   -3.203200   -2.185100
H     -3.251200   -3.210200   -1.180800
