16
gdb_15924
N      0.004500   -1.139700   -0.446400
C     -0.012900   -0.003200   -0.227500
C     -0.022500    1.410600    0.043500
C     -0.531600    2.363700   -1.092500
C      0.843900    3.096900   -1.108500
C      1.273000    2.309800    0.146200
N      0.733500    2.902000    1.394800
C     -0.340200    1.880900    1.487600
H     -0.789500    1.849000   -2.018700
H     -1.382100    2.973000   -0.780100
H      1.438600    2.839000   -1.988900
H      0.826200    4.180700   -0.984200
H      2.282700    1.897200    0.199500
H      1.380500    2.890800    2.173100
H     -1.343600    2.288800    1.652700
H     -0.152400    1.087900    2.220800
