16
gdb_7296
C     -0.450800    1.319700    0.013700
N     -0.158000   -0.096200   -0.103900
C     -0.085100   -0.893900    1.115100
C     -1.331600   -0.892800    1.880800
C     -2.347600   -0.871400    2.522400
C      0.123600   -0.726300   -1.298200
N      0.130300    0.099600   -2.416900
O      0.311700   -1.928600   -1.390500
H      0.455700    1.937300    0.106300
H     -1.029300    1.662800   -0.847200
H     -1.063700    1.480200    0.904200
H      0.167700   -1.908600    0.797700
H      0.731600   -0.532300    1.757500
H     -3.248900   -0.874800    3.084000
H      0.457700    1.047600   -2.317100
H      0.503700   -0.380400   -3.221700
