13
gdb_15278
C     -0.087700   -1.202800    0.238600
C     -0.017900   -0.005700    0.155700
C      0.037200    1.425800    0.032400
O      0.692300    2.162900    1.082100
C      1.305800    2.152100   -0.195400
C      2.625700    1.411000   -0.319700
C      3.756400    2.222400    0.129000
N      4.645800    2.874200    0.473000
H     -0.152500   -2.260200    0.321800
H     -0.877500    1.894300   -0.328700
H      1.255300    3.098900   -0.733600
H      2.582000    0.487100    0.263900
H      2.788900    1.130800   -1.367300
