18
gdb_9716
C     -0.011100    1.586100    0.011000
C      0.004300    0.055600    0.035600
C      0.728000   -0.593900   -1.191000
C      1.568200   -1.777900   -0.643000
C      1.601900   -1.515800    0.842200
C      0.780000   -0.533500    1.205100
C     -1.418500   -0.493300    0.125200
O     -2.410800    0.163200    0.306400
H      1.010300    1.977300    0.002400
H     -0.534000    1.956100   -0.876200
H     -0.532600    1.986100    0.884300
H      0.026000   -0.904400   -1.970900
H      1.383200    0.159800   -1.636800
H      1.103400   -2.749200   -0.858600
H      2.569900   -1.818800   -1.086300
H      2.227300   -2.084700    1.521900
H      0.619700   -0.183100    2.219100
H     -1.474200   -1.602500    0.021200
