16
gdb_14252
C      0.467300    1.479700   -0.096300
C      0.108300    0.020300    0.073300
O      0.860400   -0.861900   -0.804900
C      1.264400   -1.707300    0.292000
C      0.580600   -0.766600    1.324100
N      1.915200   -0.465300    1.842300
C      2.595500   -1.242600    0.891000
N      3.797600   -1.480000    0.590500
H      1.523500    1.653800    0.126800
H      0.285000    1.790600   -1.129200
H     -0.145400    2.106200    0.561300
H     -0.967200   -0.135500   -0.092800
H      1.068200   -2.766900    0.130700
H     -0.158000   -1.055100    2.071500
H      2.228300    0.408100    2.244600
H      4.449300   -0.932500    1.156300
