19
gdb_11030
C     -0.069400    1.591100    0.052800
C      0.014800    0.058100    0.009400
C      0.777100   -0.480500   -1.191200
C      1.771000   -1.299900   -0.847000
C      1.867400   -1.431500    0.644500
C      2.341500   -2.711100    1.281700
N      2.201100   -0.114500    1.268800
C      0.788200   -0.557300    1.178300
H      0.933500    2.017700    0.132200
H     -0.547400    1.985500   -0.849800
H     -0.656500    1.925400    0.914600
H     -1.008800   -0.345500    0.006500
H      0.536400   -0.176800   -2.204900
H      2.453000   -1.796200   -1.528300
H      3.401300   -2.891400    1.066300
H      2.222000   -2.677900    2.369800
H      1.775900   -3.571100    0.907100
H      2.519500   -0.282300    2.223000
H      0.266000   -0.798400    2.099200
