15
gdb_21226
C      0.063800    1.453300    0.001400
N     -0.087700    0.005900   -0.053600
C      0.562400   -0.689500   -1.040600
N      1.140700   -0.126800   -2.072700
O      1.597100   -1.180200   -2.845600
N      1.307200   -2.378900   -2.267900
C      0.672100   -2.117800   -1.160900
C      0.167800   -3.171900   -0.235100
H      1.105000    1.769200    0.152900
H     -0.282300    1.886300   -0.940300
H     -0.553200    1.841600    0.814200
H     -0.101200   -0.459600    0.840900
H      0.642100   -3.097100    0.750700
H     -0.913800   -3.078300   -0.088300
H      0.381300   -4.161500   -0.642000
