15
gdb_21550
N     -0.012500    1.497100   -0.087400
C     -0.011600    0.089500   -0.051100
C     -1.061500   -0.809000   -0.159000
C     -2.468500   -1.372200   -0.326100
C     -1.760200   -2.790000   -0.320900
N     -0.511900   -2.038600   -0.144400
N      0.812200   -2.089100   -0.054200
C      1.119900   -0.776600    0.013800
H      0.847200    1.880600    0.285000
H     -0.787600    1.896900    0.427000
H     -3.158500   -1.211500    0.506300
H     -2.974200   -1.127900   -1.263500
H     -2.010700   -3.446100    0.517000
H     -1.816400   -3.344600   -1.261300
H      2.155400   -0.479400    0.106900
