17
gdb_18836
O     -0.041200    1.416500   -0.044100
C      0.020700   -0.000800    0.008100
C      0.621200   -0.523400    1.344800
C     -0.599300   -0.802400    2.213200
C     -1.841700   -0.386000    1.538500
C     -1.417200   -0.513900    0.054400
C     -1.422300   -2.038700    0.309200
N     -1.580100   -1.850900    1.793000
H      0.857000    1.759000    0.002200
H      0.560600   -0.401300   -0.863900
H      1.242900   -1.413800    1.200300
H      1.254200    0.242600    1.804700
H     -0.513700   -0.748100    3.292900
H     -2.676700    0.152600    1.969200
H     -2.056600   -0.116000   -0.731700
H     -2.319500   -2.534000   -0.067900
H     -0.542200   -2.616200    0.000800
