21
gdb_17073
C     -0.177900    1.659500    0.126800
C     -0.144100    0.146700   -0.006800
C      0.292000   -0.708400    1.215500
C     -0.826800   -1.724100    0.857600
C     -1.494900   -0.623900   -0.012200
N      1.167600    2.205300    0.279900
C      1.864300    2.556100   -0.953200
C      1.337400    3.614800   -0.048000
H     -0.704800    2.099100   -0.742800
H     -0.753300    1.935600    1.020300
H      0.449100   -0.127200   -0.887300
H      1.322800   -1.067500    1.243600
H      0.083900   -0.185900    2.154700
H     -0.447700   -2.548000    0.245800
H     -1.412900   -2.146100    1.677400
H     -2.264300   -0.080100    0.546900
H     -1.913200   -0.915600   -0.978900
H      2.926300    2.329700   -0.982800
H      1.339500    2.405800   -1.896200
H      0.463900    4.168700   -0.390000
H      2.007100    4.175700    0.597900
