18
gdb_19432
C     -0.009800    1.477500   -0.004700
N      1.247600    0.697700   -0.000900
C     -0.052400    0.000300    0.016000
C     -0.390900   -0.841000    1.246400
C     -0.285300   -2.311300    0.762100
C     -0.589400   -2.236900   -0.726000
N     -1.795900   -1.435300   -1.027900
C     -0.450000   -0.827700   -1.172900
H     -0.198400    2.039200    0.906600
H     -0.306300    1.989600   -0.917000
H      1.643200    0.680700   -0.939300
H      0.283700   -0.614900    2.074200
H     -1.414600   -0.626800    1.563200
H      0.733300   -2.693100    0.896200
H     -0.965800   -2.978000    1.300100
H     -0.338600   -3.069000   -1.376200
H     -2.138900   -1.688300   -1.951600
H     -0.093800   -0.554800   -2.162700
