21
gdb_11625
C     -0.180800    1.508000    0.086800
C     -0.029400   -0.008500   -0.036700
O      0.653200   -0.360800   -1.240600
C      0.643700   -0.627900    1.193900
C      0.752800   -2.150300    1.114600
N      1.490000   -2.680100    2.256700
C      0.700700   -3.021100    3.435700
C      1.273300   -4.087100    2.567600
H      0.798400    1.986100    0.216200
H     -0.644600    1.917500   -0.814600
H     -0.797800    1.777300    0.950200
H     -1.025200   -0.454700   -0.157900
H      1.530400    0.037200   -1.202000
H      1.651100   -0.205200    1.311300
H      0.083000   -0.342900    2.093300
H     -0.259600   -2.591400    1.037800
H      1.289200   -2.426900    0.201600
H      1.150700   -2.786800    4.396300
H     -0.377600   -2.871800    3.389000
H      0.575700   -4.645600    1.944700
H      2.151000   -4.645400    2.880800
