12
gdb_807
O      0.807700   -0.422600   -0.523600
C     -0.187200    0.395000    0.050100
C     -1.499900   -0.360400    0.091500
N     -2.580400    0.152000    0.568900
O     -2.348200    1.454100    1.018400
C     -1.579100   -1.689300   -0.407900
C     -1.632000   -2.813200   -0.833600
H      1.628400    0.077700   -0.537600
H      0.058700    0.700100    1.079200
H     -0.350200    1.323800   -0.518600
H     -3.215700    1.716800    1.344200
H     -1.678600   -3.805300   -1.209400
