11
gdb_4620
O     -0.015100    1.372500    0.008400
C     -0.019400    0.020100    0.001100
C     -1.174000   -0.683900    0.004100
O     -1.160300   -2.036800   -0.003300
C      0.027700   -2.751200   -0.014200
O      0.004000   -3.952000   -0.020600
C      1.221900   -1.899600   -0.016600
N      1.196800   -0.607800   -0.009500
H      0.912000    1.643300    0.004400
H     -2.168200   -0.259800    0.012200
H      2.178300   -2.414800   -0.025000
