17
gdb_18487
N     -0.020400   -1.132000   -0.241500
C     -0.037500    0.005500   -0.037200
C     -0.025200    1.445600    0.212800
C      1.372900    2.058800    0.027100
C      2.009600    2.103200   -1.404300
C      2.180700    3.620700   -1.255800
C      0.842300    4.266800   -1.055600
C      1.498200    3.585000    0.116100
H     -0.746900    1.920300   -0.460900
H     -0.380700    1.626500    1.234200
H      2.062000    1.574400    0.723300
H      2.948100    1.549400   -1.456200
H      1.369700    1.779000   -2.231900
H      3.052600    4.185800   -1.559700
H      0.846300    5.350800   -1.006200
H     -0.044300    3.853700   -1.531900
H      1.747500    4.130800    1.018300
