19
gdb_11560
C      0.136400    1.341400    0.054700
O     -0.017200   -0.069500   -0.072700
C      0.631400   -0.653400   -1.108900
C      0.378900   -2.142900   -1.118700
N      1.329900    0.041600   -1.906100
C      2.013100   -0.562700   -2.994900
C      2.136100    0.252600   -4.263900
C      3.342700    0.042500   -3.390000
H      1.187900    1.610000    0.192800
H     -0.232600    1.857600   -0.836600
H     -0.449100    1.624700    0.930900
H     -0.097200   -2.449900   -2.054800
H      1.318200   -2.696600   -1.028900
H     -0.271100   -2.415800   -0.287500
H      1.922000   -1.640000   -3.128100
H      2.080700   -0.269700   -5.212600
H      1.670300    1.230800   -4.250400
H      3.682500    0.880300   -2.793000
H      4.125500   -0.625700   -3.731800
