15
gdb_20889
C      0.000800    1.547000    0.010400
C      0.002700    0.016600    0.002300
C     -1.422900   -0.544300    0.012500
N     -1.438600   -2.004100    0.004900
N     -1.422900   -2.740300   -1.094700
N     -1.386400   -3.970500   -0.679200
N     -1.377000   -3.977700    0.667100
N     -1.407300   -2.752000    1.096200
H      1.023300    1.933300    0.002700
H     -0.514600    1.950300   -0.867700
H     -0.497800    1.941000    0.902400
H      0.522100   -0.360200   -0.885300
H      0.538400   -0.369500    0.876200
H     -1.965900   -0.234000    0.907800
H     -1.982400   -0.224300   -0.869000
