22
gdb_7835
C      0.006400    1.412900    0.480500
C      0.001200   -0.003400   -0.111700
C     -1.399600   -0.622400   -0.025700
C      0.512300   -0.037800   -1.567600
C      1.954400    0.386400   -1.714000
O      2.951200   -0.464600   -1.126400
C      2.962300   -0.294300   -2.548000
C      2.715100   -1.514800   -3.397400
H      1.010200    1.847300    0.500800
H     -0.638900    2.084000   -0.100000
H     -0.367500    1.405200    1.509600
H      0.687400   -0.623500    0.479800
H     -2.121900   -0.044200   -0.615000
H     -1.407500   -1.649600   -0.405700
H     -1.759200   -0.644800    1.008300
H      0.382400   -1.051500   -1.958500
H     -0.109000    0.623200   -2.189100
H      2.135400    1.446400   -1.522300
H      3.790200    0.326500   -2.900000
H      1.889800   -2.119000   -3.016500
H      2.491000   -1.223600   -4.429500
H      3.611000   -2.144500   -3.415700
