19
gdb_19905
C     -0.255000    1.568600    0.136900
C      0.139000    0.118500   -0.172000
C      0.803100   -0.541600    1.037600
C      0.799900   -1.933900    1.553100
C      0.968700   -3.099000    0.562300
C      1.058700   -2.668300   -0.874700
C      2.202800   -2.386400    0.065900
N      2.091100   -1.281000    1.100000
H      0.621900    2.164300    0.411500
H     -0.724800    2.041400   -0.730800
H     -0.965200    1.617100    0.969400
H     -0.754700   -0.437100   -0.475300
H      0.826300    0.109500   -1.023200
H      0.824900    0.151900    1.880700
H      0.641300   -2.136200    2.609500
H      0.847500   -4.130300    0.864800
H      1.285200   -3.492000   -1.547400
H      0.418600   -1.920800   -1.315300
H      3.203500   -2.755800   -0.116800
