16
gdb_17092
N     -0.048400   -1.141900   -0.075700
C     -0.000900    0.012000   -0.035700
C      0.032800    1.471100    0.038800
C     -0.504600    2.052400    1.407600
C      0.774200    2.816700    1.788300
C      1.171400    3.426700    0.422200
N      1.436000    1.995600   -0.019200
C      1.862200    1.776200    1.425800
H     -0.521700    1.866900   -0.816200
H     -1.371500    2.701300    1.262800
H     -0.767700    1.270200    2.122400
H      0.765000    3.380500    2.722000
H      0.420100    3.963600   -0.165100
H      2.110800    3.981900    0.433600
H      2.884700    2.133000    1.559400
H      1.767700    0.748700    1.786500
