19
gdb_18523
C     -0.064100    1.495000   -0.039700
C     -0.121600    0.000100    0.225800
O     -1.335900   -0.501500   -0.299700
C     -1.487100   -1.879800   -0.145300
C     -1.845800   -2.488600    1.270800
C     -3.078400   -3.114300    0.611700
N     -3.897000   -1.971500    0.149700
C     -2.781800   -2.462500   -0.697500
H      0.864100    1.918500    0.355900
H     -0.108700    1.694700   -1.114100
H     -0.909000    1.999700    0.437000
H      0.735500   -0.511100   -0.246300
H     -0.059700   -0.201500    1.307500
H     -0.620200   -2.416000   -0.563800
H     -1.102500   -3.203100    1.629400
H     -2.079900   -1.758300    2.048500
H     -3.522300   -4.081400    0.810400
H     -4.750500   -2.355600   -0.256200
H     -2.965300   -2.799000   -1.710500
