17
gdb_18199
N     -0.524400   -0.908100   -0.970200
C     -0.281400    0.110700   -0.480800
C      0.028500    1.396400    0.144900
C     -0.339500    1.439400    1.658200
C      0.596400    2.511300    2.257600
C      1.850100    2.468400    1.395200
C      2.437400    1.116000    1.075400
C      1.509100    1.780900    0.091500
H     -0.543800    2.165600   -0.388500
H     -1.398000    1.659500    1.809900
H     -0.150700    0.461500    2.107600
H      0.139000    3.504700    2.180200
H      0.792900    2.328000    3.319000
H      2.513100    3.326200    1.407300
H      3.486400    1.083400    0.804000
H      2.100600    0.240000    1.620100
H      1.904700    2.118600   -0.858900
