20
gdb_14836
C      0.129900    1.523200    0.175600
C      0.277400   -0.001100    0.142100
C      0.595500   -0.532300   -1.254200
C      2.069700   -0.322900   -1.714300
C      2.379700   -1.798800   -1.355800
C      0.844300   -2.086800   -1.344500
C      0.301100   -2.964000   -0.328600
C     -0.141000   -3.685400    0.527400
H      1.044900    2.025200   -0.157400
H     -0.684200    1.854800   -0.478700
H     -0.091100    1.876600    1.187400
H      1.060800   -0.313100    0.844800
H     -0.646900   -0.470900    0.498100
H     -0.164100   -0.173100   -1.956300
H      2.149000   -0.129800   -2.787500
H      2.641500    0.443200   -1.184900
H      2.979300   -2.381600   -2.058000
H      2.809900   -1.904900   -0.357700
H      0.531900   -2.440100   -2.333200
H     -0.531900   -4.326500    1.277800
