13
gdb_2526
C     -0.278900    1.395000    0.026000
O      0.135200    0.043400    0.158400
C      0.705300   -0.512100   -0.983200
C      1.462600   -1.774200   -0.567100
O      2.059100   -2.472600   -1.341800
C     -0.296300   -0.876200   -2.089600
O     -1.460300   -0.585500   -2.055900
H      0.561700    2.035200   -0.282100
H     -1.097500    1.497100   -0.692500
H     -0.620700    1.713400    1.012700
H      1.451100    0.156400   -1.457100
H      1.391700   -1.983200    0.520800
H      0.162600   -1.441200   -2.928200
