19
gdb_4117
C     -1.048400    1.106700   -0.240300
C     -0.159300   -0.119300   -0.426500
C      0.917600   -0.088700   -1.562200
C      2.007200   -0.586300   -0.555700
C      3.337700    0.152900   -0.481500
C      0.988200   -0.352300    0.547200
N      1.172500   -0.302400    1.798800
O     -0.027300   -0.025500    2.489900
H     -0.445700    2.015700   -0.143700
H     -1.710100    1.231400   -1.104400
H     -1.660600    1.014100    0.659200
H     -0.781300   -1.020800   -0.495200
H      0.731200   -0.720400   -2.432700
H      1.114700    0.932200   -1.903200
H      2.187200   -1.661500   -0.681300
H      3.180400    1.229700   -0.361200
H      3.928600   -0.194600    0.371100
H      3.924000   -0.006700   -1.392600
H      0.271400    0.003800    3.404800
