17
gdb_3105
C     -0.000400    1.190800    0.467500
O     -0.060600   -0.013000   -0.283700
C     -1.322100   -0.618500   -0.218000
C     -1.407000   -2.055700   -0.676400
C     -0.224100   -2.771900   -1.289000
C     -1.454200   -1.722900    0.807100
O     -0.347700   -1.981700    1.618000
H      1.016100    1.578700    0.369500
H     -0.706800    1.936400    0.075500
H     -0.225800    1.020000    1.528800
H     -2.151600    0.059000   -0.421000
H     -2.367700   -2.316400   -1.114600
H      0.705400   -2.536700   -0.768300
H     -0.368000   -3.855900   -1.238100
H     -0.096700   -2.494900   -2.340400
H     -2.384600   -1.858000    1.349600
H      0.368900   -1.426500    1.282800
