18
gdb_17632
C     -0.169300    1.413900    0.067600
C     -0.006400   -0.080900   -0.065300
O      1.071200   -0.602600   -0.263100
C     -1.250100   -0.976700    0.049800
O     -0.881300   -2.313800   -0.154500
C     -1.945100   -0.801800    1.389500
C     -3.057400    0.205400    1.563100
C     -3.367800   -1.268900    1.540000
H      0.775900    1.908700   -0.158200
H     -0.953500    1.778200   -0.603900
H     -0.483400    1.665600    1.085600
H     -1.951400   -0.651400   -0.741000
H      0.078600   -2.289600   -0.304100
H     -1.293400   -0.966600    2.243700
H     -3.125000    0.737000    2.505700
H     -3.353200    0.796400    0.702200
H     -3.858200   -1.672100    0.660600
H     -3.649100   -1.753600    2.467700
