16
gdb_11424
C     -0.372700    1.199400   -0.235400
O     -0.211500   -0.205800   -0.341600
C      0.943400   -0.589000   -1.032600
C      0.987100   -2.112900   -1.042000
C      0.230000   -2.456700   -2.324500
O     -0.217700   -3.521900   -2.650900
C      0.147700   -1.155200   -3.128300
O      0.907000   -0.199200   -2.403400
H      0.470600    1.654800    0.304900
H     -0.452600    1.670500   -1.221500
H     -1.291600    1.372300    0.328000
H      1.829400   -0.096500   -0.611200
H      2.017800   -2.471800   -1.133600
H      0.529100   -2.567400   -0.163800
H      0.576700   -1.276000   -4.127500
H     -0.904800   -0.858200   -3.235000
