17
gdb_16843
O      0.067100    1.386500   -0.034800
C      0.030800   -0.026500   -0.096300
C      0.811400   -0.733400    1.042300
C      0.064100   -2.055600    1.356800
O      0.130000   -2.451200    2.713600
C     -1.354600   -1.801000    0.868300
N     -1.878000   -0.518000    1.404600
C     -1.374300   -0.601600    0.009300
H     -0.406700    1.630500    0.769900
H      0.451500   -0.284900   -1.074400
H      1.861500   -0.895500    0.792000
H      0.784700   -0.096800    1.931800
H      0.494100   -2.889200    0.790700
H     -0.350900   -1.778200    3.211100
H     -2.041600   -2.630300    0.736700
H     -2.894200   -0.544300    1.391100
H     -2.076900   -0.474300   -0.807400
