20
gdb_9770
C      0.067800    1.568600   -0.083800
C      0.003100    0.044800    0.044400
C      0.683900   -0.522800    1.304800
C     -0.010900   -0.111900    2.600800
C      0.868700   -2.052800    1.182200
O      2.134700   -2.186700    0.555300
C      2.906400   -1.163000    1.128700
O      2.052900   -0.056900    1.336300
H      1.103100    1.911800   -0.014000
H     -0.336500    1.891200   -1.048000
H     -0.509800    2.072000    0.697800
H     -1.041900   -0.291800    0.032600
H      0.492600   -0.413900   -0.822800
H     -1.041000   -0.484300    2.622600
H      0.521700   -0.517900    3.465500
H     -0.039900    0.975400    2.702900
H      0.869300   -2.531800    2.174100
H      0.118700   -2.534000    0.551300
H      3.336500   -1.490500    2.093400
H      3.710100   -0.895900    0.434400
