15
gdb_16476
C      0.040400    1.502700    0.016800
C     -0.100500    0.015300    0.010400
C     -0.003100   -0.866200    1.224100
C     -0.546600   -2.256900    0.924700
C      0.134700   -2.046700   -0.442000
N      1.076200   -0.964500    0.203000
C     -0.605700   -0.872600   -1.082400
O     -1.132500   -0.677100   -2.141000
H      0.758500    1.821600    0.777500
H      0.384500    1.860300   -0.957700
H     -0.921900    1.977600    0.233600
H      0.187200   -0.418500    2.194500
H     -0.025600   -3.008300    1.523300
H     -1.624600   -2.441900    0.945100
H      0.551400   -2.855000   -1.036900
