17
gdb_15079
O      0.238200    1.093300   -0.145000
C     -0.119800   -0.236900    0.162700
C     -1.645100   -0.427800    0.093900
C     -2.316900    0.463200    1.136200
O     -2.366900    0.182500    2.304400
N     -2.091900   -0.033700   -1.240000
C     -2.164500   -1.087400   -2.250100
C     -3.406300   -0.509600   -1.669800
H     -0.255100    1.319100   -0.944600
H      0.358300   -0.959200   -0.519200
H      0.226600   -0.447100    1.178600
H     -1.888600   -1.474800    0.344000
H     -2.751500    1.404200    0.735300
H     -1.843700   -0.807300   -3.248800
H     -1.893400   -2.097700   -1.949800
H     -3.970000   -1.133200   -0.978400
H     -4.002100    0.198700   -2.237100
