20
gdb_7965
C     -0.016700    1.513100    0.137800
C      0.041400    0.021300    0.026000
C      0.052100   -0.736500   -1.082400
C      0.008900   -0.299600   -2.513800
C      0.057300   -2.212600   -0.730900
C      0.478900   -2.229100    0.755400
O      1.882400   -2.417000    0.897400
C      0.037900   -0.842000    1.273800
H      0.831200    1.898300    0.719000
H     -0.011000    2.011000   -0.834800
H     -0.922600    1.831100    0.670700
H      0.006400    0.787400   -2.624600
H      0.867700   -0.693800   -3.072400
H     -0.887100   -0.688700   -3.015200
H     -0.942100   -2.649500   -0.874300
H      0.750500   -2.809700   -1.335100
H      0.028300   -3.052800    1.314200
H      2.312500   -1.702600    0.413200
H      0.717800   -0.489600    2.058600
H     -0.967200   -0.876000    1.719900
