15
gdb_3605
O     -0.163900    1.414400    0.442900
C     -0.058400    0.056500    0.157400
C     -0.612600   -0.994400    1.079400
C     -1.255400   -0.764900   -0.279800
C     -2.595500   -0.108700   -0.383200
C     -3.705000   -0.395300    0.537800
O     -2.943400    0.811700    0.666000
H     -1.028300    1.565200    0.846100
H      0.889500   -0.144400   -0.331100
H     -0.060400   -1.912900    1.246000
H     -1.157200   -0.629400    1.944900
H     -1.083700   -1.515600   -1.046800
H     -2.853600    0.258600   -1.377100
H     -4.733900   -0.250800    0.213900
H     -3.557700   -1.124000    1.332300
