11
gdb_914
N     -0.119000    1.326000    0.008700
C      0.023200    0.062400    0.000900
N     -1.147400   -0.731700    0.003400
C     -1.093500   -2.073000   -0.004100
N      0.016100   -2.750000   -0.014100
C      1.142500   -1.952700   -0.016300
N      1.215000   -0.659400   -0.009800
H      0.802300    1.760500    0.005800
H     -2.027000   -0.233600    0.011200
H     -2.048800   -2.593800   -0.001300
H      2.083300   -2.500500   -0.024700
