13
gdb_21217
C      0.008400    1.386400    0.120600
N     -0.072000   -0.050000   -0.102900
C      0.617000   -0.604400   -1.123000
N      1.230400    0.011000   -2.078100
O      1.700600   -1.072600   -2.905200
C      1.348200   -2.250100   -2.335200
N      1.569100   -3.428400   -2.701000
O      0.642600   -1.957000   -1.186000
H      1.007200    1.708400    0.440000
H     -0.237400    1.905400   -0.808500
H     -0.722400    1.662000    0.882300
H     -0.195400   -0.649200    0.698300
H      2.103600   -3.442200   -3.565900
