17
gdb_11522
O      0.198500    1.489000   -0.129500
C      0.071300    0.071400   -0.048100
C      0.713500   -0.638800   -1.254700
N      0.005100   -0.301700   -2.476600
C      0.468400    0.873000   -3.205300
C      0.735700   -0.494600   -3.726400
C      0.615800   -0.447300    1.209200
C      1.113900   -0.851900    2.225900
H      1.093600    1.714000    0.147600
H     -1.007100   -0.118900   -0.092300
H      1.788100   -0.377200   -1.289300
H      0.645700   -1.721600   -1.100600
H     -0.308900    1.492200   -3.642500
H      1.310200    1.425900   -2.794800
H      1.760500   -0.858800   -3.667100
H      0.157300   -0.900000   -4.551600
H      1.531200   -1.212600    3.133700
