17
gdb_14923
N      0.000800   -1.181400   -0.034100
C     -0.005100   -0.025700   -0.011200
C     -0.005000    1.436600    0.030300
C     -0.741300    1.972700    1.279600
C     -0.641300    3.499700    1.316900
O      0.703100    3.942800    1.291700
C      1.377400    3.533800    0.115900
C      1.430400    2.009300   -0.012400
H     -0.542300    1.785300   -0.862900
H     -1.790600    1.661400    1.270100
H     -0.277900    1.554400    2.179300
H     -1.199000    3.931300    0.466900
H     -1.078900    3.892500    2.238600
H      0.885700    3.966500   -0.773400
H      2.386100    3.951000    0.177100
H      2.010300    1.593100    0.818000
H      1.930100    1.724100   -0.943400
