16
gdb_2782
C     -0.188100    1.557900   -0.048200
C      0.157600    0.066700   -0.003600
N      0.775900   -0.415500   -1.216600
C      0.274600   -0.600400   -2.582400
C      1.673300   -1.175500   -2.945800
C      2.029400   -0.925000   -1.461200
O      2.984900   -1.089000   -0.747800
H      0.710800    2.159900   -0.209200
H     -0.896200    1.778700   -0.853500
H     -0.647900    1.869400    0.894700
H      0.873800   -0.137800    0.798400
H     -0.746000   -0.522300    0.206700
H     -0.557100   -1.310700   -2.656300
H      0.001600    0.329300   -3.092800
H      1.689200   -2.226000   -3.241100
H      2.256500   -0.586300   -3.655600
