17
gdb_14760
C      0.532400    0.400900    0.841100
O      0.049100   -0.758200    0.193700
C     -1.345600   -0.930900    0.325300
C     -1.708100   -2.315900   -0.187200
O     -1.406700   -3.382300    0.704000
C     -0.040500   -3.635300    0.936300
C      0.479600   -2.920200    2.118800
N      0.872800   -2.387500    3.065800
H      1.604500    0.459200    0.641300
H      0.045900    1.308900    0.453200
H      0.376200    0.346500    1.927300
H     -1.661200   -0.829800    1.375300
H     -1.888000   -0.171600   -0.264600
H     -2.789600   -2.377200   -0.337700
H     -1.211900   -2.475800   -1.156400
H      0.060900   -4.710300    1.123700
H      0.581100   -3.373500    0.071500
