13
gdb_3620
C     -0.011700    1.535600    0.051800
O      1.359900    1.956000    0.014500
C      2.118100    0.862000   -0.441400
C      2.011500   -0.443800    0.330600
O      0.836600   -0.420500    1.140300
C      0.068000    0.018800   -0.026100
C      1.265100   -0.254200   -0.969200
H     -0.456600    1.872800    0.992500
H     -0.572500    1.963000   -0.794200
H      3.054200    1.140100   -0.910000
H      2.829500   -1.090500    0.626900
H     -0.869000   -0.526200   -0.141600
H      1.280700   -0.737600   -1.935900
