12
gdb_2902
O     -0.097500    0.020400    0.236800
C      0.022500    1.202100    0.061200
C      1.345900    1.902300   -0.030400
N      2.491700    1.364300    0.061300
C      3.465400    2.456500   -0.090800
C      2.606400    3.733400   -0.296000
O      1.244400    3.243600   -0.231900
H     -0.843300    1.886100   -0.049700
H      4.097600    2.508700    0.801500
H      4.122400    2.245400   -0.940600
H      2.736000    4.482500    0.489300
H      2.751400    4.209000   -1.269400
