15
gdb_4355
C      0.007100    1.492700    0.021500
C      0.036000   -0.013900    0.022300
N      0.081200   -0.607800   -1.179000
C      0.107600   -1.942600   -1.202600
C      0.091600   -2.754200   -0.076400
C      0.044600   -2.130000    1.168600
O      0.028400   -2.907200    2.278500
C      0.016400   -0.736000    1.215600
H      0.893800    1.887500   -0.484400
H     -0.863400    1.853700   -0.535200
H     -0.030000    1.902200    1.034000
H      0.144100   -2.399400   -2.189300
H      0.114400   -3.834500   -0.148500
H     -0.004400   -2.344300    3.060000
H     -0.020400   -0.218000    2.170200
