22
gdb_9954
C     -0.263400    1.001700   -1.762900
C     -0.061200   -0.175700   -0.833100
C      1.301800   -0.630200   -0.344200
C      2.595500    0.059900   -0.724100
C      0.302600   -0.036300    0.634600
C      0.532600    1.324800    1.265900
C     -0.364700   -1.014300    1.576600
O     -1.664200   -0.525100    1.894900
H      0.454100    1.808100   -1.594800
H     -0.161500    0.690100   -2.808700
H     -1.266300    1.425200   -1.639900
H     -0.757900   -0.986100   -1.037000
H      1.416500   -1.710600   -0.271700
H      2.488200    1.142400   -0.820700
H      3.372900   -0.125200    0.025900
H      2.967700   -0.317800   -1.683100
H      0.929600    2.061400    0.565800
H     -0.409300    1.711300    1.665000
H      1.241400    1.249100    2.099900
H     -0.426300   -2.005700    1.099900
H      0.243800   -1.125800    2.489900
H     -2.026600   -1.072700    2.597200
