13
gdb_7232
C      0.023700    1.496600    0.112400
C     -0.004600   -0.001500    0.018800
O     -0.065300   -0.754200    0.964900
C      0.050000   -0.581400   -1.420500
O      0.110900    0.129300   -2.391900
N      0.018600   -1.964800   -1.395500
C      0.048600   -2.844400   -2.475300
O      0.108700   -2.537400   -3.632700
H      0.929300    1.880300   -0.368200
H     -0.815800    1.918300   -0.449700
H     -0.018300    1.805300    1.156700
H     -0.033700   -2.351300   -0.459300
H      0.008800   -3.892300   -2.117900
