15
gdb_16976
C     -0.009000    1.559600   -0.113600
N      1.517800    1.592800    0.135300
C      1.273400    0.305600    0.945700
C      1.269200   -1.289500    0.934700
O     -0.220600   -1.135300    1.047800
C      0.084800    0.026800    0.112300
C      0.630000   -0.743100   -1.104200
C      1.441200   -1.636500   -0.538000
H     -0.510800    2.118100    0.677600
H     -0.325200    1.916100   -1.098500
H      1.958900    1.347700   -0.753100
H      1.029100    0.633400    1.956900
H      1.693700   -1.911600    1.722400
H      0.366500   -0.569400   -2.138100
H      2.052500   -2.421400   -0.957800
