17
gdb_6066
C     -0.045000    1.503300    0.054000
C      0.046900    0.004600   -0.168500
O      1.068300   -0.523400   -0.547800
C     -1.224700   -0.786500    0.099400
C     -1.019200   -2.297200    0.084400
C     -2.308800   -3.048600   -0.236100
N     -2.321200   -4.354800    0.163300
O     -3.253200   -2.535900   -0.806800
H      0.863900    1.989800   -0.301700
H     -0.920200    1.920300   -0.455500
H     -0.172100    1.711000    1.123000
H     -1.672200   -0.444700    1.040600
H     -1.960100   -0.525800   -0.673700
H     -0.278400   -2.540600   -0.687100
H     -0.595300   -2.652800    1.029600
H     -1.495200   -4.806900    0.515200
H     -3.089100   -4.931500   -0.140400
