12
gdb_21811
O     -0.242700    0.449800    0.870000
C      0.016000    1.129700   -0.082500
C      1.410600    1.720800   -0.314300
N      1.389500    2.859300   -1.206900
C      1.241000    4.175700   -0.962500
N      1.215300    4.824100   -2.105000
N      1.343800    3.872100   -3.067700
N      1.446200    2.695200   -2.549400
H     -0.723700    1.366600   -0.877000
H      1.855000    1.998900    0.643500
H      2.037000    0.949400   -0.773500
H      1.167800    4.605800    0.023300
