15
gdb_10557
O     -0.144300    1.452800   -0.059100
C     -0.055500    0.051700   -0.250000
C     -1.355200   -0.547800    0.282700
C     -1.412700   -2.052900    0.128200
C     -2.667700   -2.748700   -0.223600
O     -1.647100   -2.549900   -1.196500
C     -0.415600   -2.805600    0.876900
N      0.380900   -3.377200    1.489200
H      0.669600    1.853100   -0.378400
H      0.056700   -0.208900   -1.313200
H      0.801900   -0.377200    0.291100
H     -1.466600   -0.282600    1.339900
H     -2.198900   -0.112300   -0.260400
H     -2.819000   -3.777800    0.095000
H     -3.567600   -2.150100   -0.352700
