17
gdb_15616
C     -0.255600    1.339200    0.060100
N      0.011700   -0.089900    0.052800
C      0.599300   -0.633900    1.023900
O      1.044000   -0.032800    2.159700
C      1.482100   -1.043900    3.098300
C      0.871500   -2.361300    2.603800
C      0.850500   -2.129400    1.088400
O     -0.117000   -2.859000    0.388100
H      0.420700    1.842600   -0.641100
H     -1.275100    1.513800   -0.297800
H     -0.137500    1.803200    1.045900
H      2.578200   -1.069000    3.093300
H      1.143800   -0.741000    4.091200
H      1.447500   -3.235600    2.911300
H     -0.158400   -2.474000    2.956000
H      1.858200   -2.324200    0.679200
H     -0.497200   -2.226800   -0.242200
