14
gdb_2654
C     -0.011400    1.401900   -0.055300
N     -0.123100    0.028000   -0.498600
C     -1.058800   -0.660800   -0.026700
O     -1.197600   -1.962000   -0.375300
C     -2.361000   -2.632700    0.070800
C     -2.013800   -4.094400    0.313100
O     -2.842900   -4.942300    0.501900
H      0.966500    1.556800    0.414100
H     -0.057500    2.070200   -0.922200
H     -0.791500    1.707800    0.660900
H     -1.814600   -0.303600    0.691300
H     -2.738100   -2.208200    1.013200
H     -3.167000   -2.569500   -0.671300
H     -0.921900   -4.302200    0.309800
