22
gdb_13632
C     -0.118400    1.515100   -0.179000
O     -0.076300    0.143300    0.137900
C     -1.316000   -0.542600   -0.011700
C     -1.611900   -0.834600   -1.488700
C     -1.271500   -1.836400    0.788400
C      0.032800   -2.489900    1.179900
C     -0.886000   -1.942800    2.247600
C     -0.494000   -0.755600    3.101200
H      0.866200    1.928300    0.054100
H     -0.327400    1.698500   -1.242700
H     -0.876100    2.047200    0.417300
H     -2.120100    0.099700    0.389200
H     -2.581900   -1.330700   -1.594000
H     -1.644800    0.082700   -2.083300
H     -0.839800   -1.490000   -1.903000
H     -2.063900   -2.514700    0.481800
H      0.136100   -3.563700    1.066700
H      0.932300   -1.921700    0.973500
H     -1.452600   -2.696300    2.791100
H      0.099200   -0.039900    2.530800
H     -1.378200   -0.233900    3.486800
H      0.096300   -1.081300    3.965300
