19
gdb_1120
C      0.122100    1.658700   -0.088800
C      0.040200    0.127300   -0.020700
C      0.691300   -0.517000   -1.251000
C      0.669700   -0.410700    1.271300
C     -0.114400   -0.109700    2.544200
C      0.595400   -0.416400    3.852300
O     -1.240200    0.334200    2.522000
H      1.166500    1.995700   -0.098600
H     -0.353100    2.034400   -1.000800
H     -0.380600    2.118500    0.765300
H     -1.020300   -0.149700    0.000600
H      1.760900   -0.279800   -1.303800
H      0.593500   -1.608000   -1.233800
H      0.227900   -0.154000   -2.174300
H      0.765800   -1.506200    1.222700
H      1.698700   -0.042900    1.392800
H      1.431400    0.279700    3.989500
H     -0.099400   -0.312600    4.686600
H      1.022200   -1.425100    3.841300
