18
gdb_20788
C     -0.035500    1.635700    0.190100
C     -0.011700    0.105300    0.019600
C     -1.373900   -0.507400   -0.077000
C     -2.187100   -0.793900   -1.163800
C     -1.895900   -0.574600   -2.617400
C     -3.361500   -1.331900   -0.586500
N     -3.301000   -1.382300    0.740300
N     -2.087800   -0.871400    1.023300
H      0.981000    2.035900    0.256400
H     -0.537200    2.114100   -0.656000
H     -0.573800    1.921800    1.099000
H      0.552700   -0.150200   -0.883800
H      0.535600   -0.346900    0.856600
H     -2.380500   -1.337400   -3.234700
H     -2.253300    0.400400   -2.971600
H     -0.821900   -0.618500   -2.826200
H     -4.245100   -1.691500   -1.095500
H     -1.791900   -0.824400    1.983900
