16
gdb_15976
O     -0.649000    1.383400    0.720500
C      0.189200    0.957000   -0.032300
C      1.526600    1.633500   -0.253500
O      2.373500    0.900700   -1.157300
C      2.413600    1.993300   -2.107900
C      1.498100    2.829000   -1.219400
C      0.340900    3.703300   -1.593000
C      1.549900    4.288300   -0.898500
H      0.034200    0.047100   -0.654900
H      2.005900    1.827000    0.715700
H      3.432300    2.378900   -2.239800
H      2.007600    1.698500   -3.083900
H      0.193700    3.925400   -2.645200
H     -0.573900    3.599200   -1.019200
H      1.447600    4.584600    0.140400
H      2.227100    4.908200   -1.477900
