20
gdb_7773
C      0.038100    1.559400    0.026600
C      0.037700    0.028700    0.011200
C      0.728400   -0.529200   -1.246700
C      0.994100   -2.009100   -1.156000
C      0.898400   -2.706000   -0.024200
C      0.557000   -2.090800    1.310400
O      1.334500   -2.668600    2.359300
C      0.691600   -0.563600    1.268400
H      1.060800    1.951200    0.081400
H     -0.425100    1.966200   -0.879000
H     -0.513600    1.948000    0.888900
H     -1.007800   -0.312300   -0.010500
H      0.119900   -0.315000   -2.135300
H      1.679000    0.002100   -1.414200
H      1.271600   -2.515500   -2.078200
H      1.081700   -3.777800   -0.010500
H     -0.475700   -2.354100    1.578700
H      2.261500   -2.528900    2.135100
H      1.762000   -0.308300    1.272400
H      0.260900   -0.132300    2.178300
