19
gdb_17317
C     -0.019500    1.601600   -0.027700
C      0.154500    0.085200    0.024700
C      1.293100   -0.857700   -0.338800
N      2.721400   -0.578100    0.075000
C      2.828900    0.746800    0.709300
C      2.206700   -0.361600    1.471900
C      0.768900   -0.788000    1.085600
C      0.023300   -1.791700    1.917200
H      0.453100    2.045300   -0.910400
H     -1.086400    1.841200   -0.080300
H      0.374700    2.101100    0.860100
H     -0.747100   -0.414100   -0.333900
H      1.166000   -1.621000   -1.097900
H      3.858000    0.979400    0.973800
H      2.272000    1.587200    0.326100
H      2.713900   -0.826000    2.313200
H     -0.367700   -1.337600    2.836600
H     -0.826800   -2.204500    1.365100
H      0.670400   -2.626600    2.210800
