20
gdb_14034
C      0.162600    1.358600   -0.582300
C      1.422700    1.615400    0.285200
C      1.316100    0.151500    0.823600
C     -0.153400    0.131900    0.314400
C      2.286400   -0.815700    0.091200
C      3.374300   -1.055500    1.110500
C      3.008500   -0.652900    2.326500
C      1.615700   -0.070000    2.323400
H     -0.584600    2.153900   -0.632400
H      0.418700    1.063000   -1.603500
H      2.349100    1.895400   -0.224000
H      1.226400    2.347300    1.075200
H     -0.858200    0.384600    1.113200
H     -0.499800   -0.783500   -0.174400
H      1.788200   -1.762700   -0.167300
H      2.659600   -0.400100   -0.852700
H      4.313400   -1.538900    0.863900
H      3.602800   -0.755600    3.227900
H      1.529800    0.859000    2.900200
H      0.899400   -0.775600    2.772800
