18
gdb_11066
C      0.032400    1.471700    0.069700
C     -0.028400   -0.032700   -0.038600
C      0.613700   -0.667800   -1.287200
O      0.125600   -2.024200   -1.264800
C     -0.690300   -2.119400   -0.088500
C      0.235500   -2.008500    1.129000
O      0.628400   -0.622200    1.105400
C     -1.390300   -0.754900   -0.040400
H      1.071300    1.815700    0.073500
H     -0.484100    1.940700   -0.772800
H     -0.437000    1.804600    0.999300
H      0.308600   -0.181000   -2.222900
H      1.706900   -0.655600   -1.213500
H     -1.295000   -3.023700   -0.150300
H     -0.268000   -2.237300    2.077800
H      1.112900   -2.655400    1.021500
H     -1.961700   -0.569300    0.871500
H     -1.998700   -0.562100   -0.926000
