16
gdb_5931
C     -0.086500    1.646600    0.017000
C     -0.052900    0.116500    0.016700
C      0.822100   -0.462000    1.138500
O     -1.383400   -0.461800    0.040500
C     -2.205500   -0.224200    1.079400
O     -3.305600   -0.687000    1.137100
C      0.511000   -0.385600   -1.320900
O      1.527100    0.036100   -1.802900
H      0.900600    2.016800   -0.269600
H     -0.817900    2.013500   -0.708200
H     -0.336700    2.046200    1.003100
H      0.487400   -0.115100    2.120000
H      0.792600   -1.555200    1.127700
H      1.855500   -0.138000    0.991100
H     -1.771200    0.429100    1.855500
H     -0.093600   -1.188200   -1.792400
