20
gdb_11993
C     -0.104800    1.564400   -0.127100
C      0.017200    0.052000   -0.002500
C      1.041300   -0.646300   -0.909400
O      2.344400   -0.179500   -0.528100
C      1.748300   -1.233800    0.235500
C      0.772000   -0.597800    1.249100
C      1.411900    0.354600    2.254000
C     -0.092000   -1.653500    1.938000
H      0.880400    2.037000   -0.132700
H     -0.614100    1.834900   -1.058900
H     -0.684500    1.988000    0.699700
H     -0.966800   -0.418200   -0.105200
H      0.927800   -1.000700   -1.928200
H      2.308200   -2.159400    0.324800
H      2.106100    1.037900    1.760200
H      0.653800    0.949800    2.775300
H      1.969900   -0.204900    3.013800
H      0.491700   -2.224200    2.669900
H     -0.927600   -1.186400    2.470900
H     -0.509700   -2.364600    1.216700
