16
gdb_11175
O      0.005100    0.038000   -0.248400
C     -0.021000    1.225900   -0.063100
C     -1.276600    2.085100    0.120300
C     -0.760900    3.431300    0.644600
C      0.651500    3.581200   -0.003300
C      1.208900    2.137800    0.044200
C      0.561700    4.081600   -1.372200
C      0.472500    4.477700   -2.504000
H     -1.738600    2.200800   -0.868100
H     -2.003700    1.584500    0.763000
H     -1.411500    4.273600    0.405000
H     -0.643200    3.395900    1.733400
H      1.272300    4.266100    0.582600
H      1.677600    1.945100    1.017600
H      1.944500    1.908200   -0.727800
H      0.403900    4.835200   -3.501600
