16
gdb_8930
O     -0.086200    1.405700   -0.212200
C      0.017200    0.012100    0.075300
C     -1.410300   -0.527100    0.010600
O     -1.995700   -0.204000   -1.232500
C     -1.437800   -2.061900    0.151300
O     -0.722700   -2.480900    1.312500
C     -2.806200   -2.577800    0.146300
C     -3.928900   -3.001200    0.215100
H      0.794200    1.750500   -0.383600
H      0.632900   -0.501800   -0.678100
H      0.451400   -0.169200    1.065000
H     -1.986600   -0.087700    0.843000
H     -1.726700    0.706000   -1.413200
H     -0.890800   -2.477600   -0.703800
H     -1.325600   -2.416800    2.061200
H     -4.921100   -3.378400    0.250600
