13
gdb_11694
N     -0.062600    1.184700   -0.054000
C     -0.060500   -0.061500    0.035500
O      0.999000   -0.963500    0.171600
C      0.093300   -2.071800    0.002700
C     -0.902600   -2.082100    1.124800
C     -1.116200   -1.120500   -0.022800
C      0.418600   -3.188000   -0.896300
O      1.455300   -3.310800   -1.495200
H      0.882600    1.567200   -0.000900
H     -1.592100   -2.920700    1.144400
H     -0.574400   -1.721500    2.094000
H     -1.992300   -1.127100   -0.654600
H     -0.407500   -3.930900   -0.971800
