17
gdb_12468
O     -0.031300    0.761400    1.492400
C     -0.047600    1.408000    0.460800
C     -1.410900    1.863100   -0.087100
N     -1.569100    2.251100   -1.473400
C     -0.797900    3.403800   -1.907500
C      0.660700    3.130700   -2.298600
C      1.534900    2.429700   -1.302100
C      1.243300    1.736400   -0.192300
H     -2.109700    1.054000    0.147500
H     -1.716600    2.709500    0.545000
H     -1.433900    1.462200   -2.095400
H     -1.297100    3.864700   -2.769600
H     -0.829000    4.144500   -1.099200
H      0.681600    2.536400   -3.227100
H      1.141500    4.080500   -2.573300
H      2.593900    2.484400   -1.555000
H      2.070200    1.304500    0.366700
