24
gdb_7194
C     -0.076600    1.591000    0.075100
C      0.020300    0.064900   -0.009400
C      0.763100   -0.548600    1.183600
C      0.814700   -2.086500    1.193100
C      1.598300   -2.670300    0.009700
C      1.397500   -2.575700    2.520000
O      1.307700   -3.983800    2.580900
C      1.854000   -4.518700    3.760200
H      0.918200    2.049900    0.101200
H     -0.611200    2.006000   -0.785100
H     -0.607500    1.905300    0.980800
H     -0.989100   -0.364200   -0.064500
H      0.520500   -0.212700   -0.944500
H      1.788600   -0.151700    1.212900
H      0.279900   -0.203700    2.108600
H     -0.216000   -2.465500    1.145400
H      2.616500   -2.262200   -0.021500
H      1.673100   -3.755800    0.105300
H      1.118600   -2.444100   -0.946400
H      2.451800   -2.256500    2.613000
H      0.849100   -2.125700    3.365800
H      2.925800   -4.282500    3.860000
H      1.338400   -4.142300    4.658600
H      1.735300   -5.604300    3.715700
