16
gdb_2379
C      0.086400    1.578500   -0.536100
C     -0.074700    0.149500   -0.081400
N      1.124100   -0.676200   -0.028500
C      0.439000   -0.367200    1.241100
C      1.152600    0.519100    2.223800
C      0.689200    0.384500    3.664300
O      2.016600    1.300300    1.896600
H      1.017500    1.997200   -0.153600
H      0.106200    1.619400   -1.630500
H     -0.752700    2.192100   -0.191100
H     -0.995700   -0.333700   -0.409400
H      0.921800   -1.636000   -0.295500
H     -0.159400   -1.153800    1.697400
H      0.898300   -0.626200    4.034800
H      1.202900    1.115800    4.288900
H     -0.395100    0.529600    3.735400
