14
gdb_3480
C     -0.016700    1.515100   -0.016800
C      0.012000    0.024700    0.022900
C      0.532600   -0.986700   -1.014000
C      0.845400   -1.976000    0.134400
C      0.345200   -1.005200    1.141800
N     -0.600000   -2.022100    0.555700
C     -0.906900   -1.021500   -0.558500
H      0.968700    1.943300    0.201000
H     -0.318800    1.868200   -1.009000
H     -0.728400    1.922600    0.710900
H      0.968400   -0.803600   -1.986100
H      1.501300   -2.833900    0.223400
H      0.510500   -0.919200    2.209900
H     -1.847400   -0.959400   -1.092600
