17
gdb_14266
C      0.004700    1.501700   -0.176400
C      1.536400    1.458100    0.066900
C      1.338400    0.106900    0.803400
C     -0.009000   -0.042700    0.033900
N      0.109000   -0.793100   -1.195600
C      0.995400   -0.559000   -2.063500
O      2.010400    0.338300   -2.159800
C      2.360300    1.354100   -1.202600
H     -0.519200    2.026500    0.627100
H     -0.355700    1.867500   -1.141400
H      1.964500    2.278600    0.651900
H      2.080500   -0.680600    0.648600
H      1.180700    0.248600    1.876100
H     -0.849300   -0.447000    0.602100
H      1.024900   -1.166600   -2.967700
H      2.314700    2.303500   -1.750500
H      3.410400    1.166600   -0.946500
