20
gdb_10952
C      0.051400    1.564300    0.070900
C      0.035800    0.064400    0.002500
C     -0.925400   -0.787700    0.781000
C      0.555800   -0.979000    1.001800
C      1.192300   -1.786700   -0.136300
C      0.838700   -3.255500   -0.275200
O      1.456000   -3.734800   -1.463800
C      0.603900   -0.763500   -1.164400
H      1.040900    1.966200   -0.177100
H     -0.667600    2.002000   -0.633000
H     -0.212400    1.919100    1.072900
H     -1.439800   -0.280900    1.592500
H     -1.528900   -1.547000    0.288500
H      1.000300   -0.822200    1.978700
H      2.282800   -1.701700   -0.111900
H      1.196300   -3.805700    0.611300
H     -0.253900   -3.383700   -0.319000
H      1.193800   -4.651100   -1.590700
H     -0.131200   -1.157200   -1.874400
H      1.382800   -0.244500   -1.727600
