17
gdb_19823
C     -0.203100    1.577400   -0.088000
C      0.061500    0.092400    0.042600
O      1.120300   -0.412000   -0.832200
C      1.733800   -1.130800    0.247500
C      2.915300   -0.442700    0.983900
N      2.651000    1.010100    0.990200
C      1.955900    0.148300    1.971700
C      0.753500   -0.541600    1.281200
H      0.699400    2.154200    0.107900
H     -0.558500    1.802100   -1.099300
H     -0.989200    1.875600    0.615400
H     -0.861800   -0.464200   -0.177500
H      1.851000   -2.201300    0.058500
H      3.922800   -0.819700    1.114000
H      3.430500    1.445800    1.482600
H      2.070200    0.321500    3.034900
H      0.152700   -1.170900    1.936100
