14
gdb_20444
C      0.059800    1.569600    0.006900
N      1.244700    0.710300   -0.065600
C     -0.078400    0.079700    0.029100
C     -0.343900   -0.661100    1.275700
C      0.410400   -0.899600    2.402600
N     -0.324700   -1.637000    3.281400
N     -1.495700   -1.875200    2.768700
N     -1.516300   -1.286300    1.553300
H     -0.044800    2.122300    0.935500
H     -0.270400    2.095200   -0.885400
H      1.593300    0.655200   -1.018100
H     -0.491800   -0.370100   -0.872400
H      1.420500   -0.589800    2.610300
H     -2.349800   -1.350600    0.990800
