14
gdb_2627
O     -0.066600   -0.124900   -0.129200
C      0.007100    1.075100   -0.115400
C      1.301500    1.861600   -0.134200
C      1.329900    2.884800   -1.279900
C      2.599800    3.757400   -1.233500
C      2.640600    4.739400   -2.314900
N      2.653900    5.510000   -3.175800
H     -0.911500    1.707400   -0.087000
H      1.375900    2.392100    0.826800
H      2.135500    1.156500   -0.197600
H      1.283900    2.368200   -2.244100
H      0.447900    3.532800   -1.227900
H      2.659400    4.289800   -0.277000
H      3.495100    3.128600   -1.299200
