15
gdb_14939
O     -0.943700    1.085100    0.276300
C      0.200400    0.837600    0.004000
C      1.304500    1.882900    0.044400
C      1.486000    2.489800    1.437700
C      2.707800    3.412100    1.405800
N      3.866600    2.804200    0.755300
C      3.674600    1.825000   -0.016800
O      2.504700    1.241200   -0.399500
H      0.545500   -0.178000   -0.289000
H      1.045900    2.675900   -0.672200
H      0.570700    3.014500    1.722600
H      1.647200    1.682500    2.161500
H      2.470800    4.350900    0.887700
H      3.001400    3.690900    2.423200
H      4.507300    1.311600   -0.493300
