18
gdb_6581
C      0.067900    1.523000    0.122700
C      0.011000    0.029000   -0.025600
C      0.617500   -0.775800   -1.219200
C      0.619300   -1.834600   -0.070700
C      1.548400   -3.012400    0.012900
O      0.919300   -0.727400    0.850500
C     -0.902500   -2.006000    0.163100
C     -1.315500   -0.740400    0.194100
H      1.081300    1.893100   -0.054400
H     -0.607600    2.003900   -0.592200
H     -0.234900    1.819400    1.132000
H      0.001100   -0.955700   -2.102900
H      1.625700   -0.440500   -1.480100
H      2.582400   -2.705600   -0.165400
H      1.492800   -3.474300    1.003900
H      1.276400   -3.767300   -0.732100
H     -1.443900   -2.936500    0.259400
H     -2.299900   -0.313400    0.323700
