14
gdb_19576
O      0.004900   -0.001200    0.084200
C     -0.014200    1.180900   -0.049700
C     -1.088100    2.291600    0.019500
C     -0.026600    2.977600    0.966000
C      1.028400    2.322600   -0.009200
C      0.675300    3.059000   -1.315100
O     -0.060100    2.268000   -2.265900
C     -0.792300    3.037500   -1.295200
H     -2.118700    2.107300    0.311900
H     -0.042400    4.069400    0.982500
H     -0.007000    2.572000    1.979800
H      2.071500    2.168500    0.255100
H      1.293300    3.851700   -1.721700
H     -1.443900    3.811600   -1.684600
