15
gdb_11324
C     -0.058400    1.406400   -0.029000
N     -0.023600   -0.048200   -0.031000
C      0.567900   -0.621500    0.928900
C      0.698800   -2.134600    1.072900
N      1.336800   -2.269300    2.370100
C      1.727200   -1.065300    2.904500
O      2.362200   -0.860300    3.910100
N      1.217600   -0.089000    2.033000
H      0.949300    1.846700   -0.077400
H     -0.613800    1.757600   -0.901500
H     -0.555500    1.810900    0.866300
H     -0.286200   -2.610600    1.034100
H      1.306400   -2.540900    0.254900
H      1.761800   -3.117000    2.702900
H      1.316000    0.889200    2.242400
