17
gdb_1620
C      0.054800    1.540400    0.158200
C     -0.026400    0.020800    0.015900
O     -1.365600   -0.442400    0.084400
C      0.676900   -0.503600   -1.270400
C      0.792900   -2.039800   -1.251300
C     -0.050700   -0.046400   -2.454500
C     -0.702900    0.317100   -3.398500
H      1.095000    1.877500    0.222600
H     -0.408900    2.035700   -0.701600
H     -0.469400    1.855800    1.063900
H      0.477300   -0.448600    0.869300
H     -1.816600   -0.114900   -0.704500
H      1.686800   -0.072500   -1.294800
H      1.238500   -2.413300   -2.176300
H      1.418200   -2.358200   -0.411300
H     -0.197100   -2.485300   -1.131800
H     -1.247100    0.640300   -4.251400
