15
gdb_20222
C     -0.033200    1.552800   -0.008200
C      1.222400    2.023000   -0.047300
C      2.150600    0.849200   -0.090500
C      1.369000   -0.314200   -0.737900
C      1.788200   -1.212200    0.468000
C      0.748300   -0.523600    1.254900
C      0.029300    0.051700   -0.013300
N      2.139100    0.017800    1.231200
H     -0.939400    2.134200    0.112800
H      1.533400    3.056700    0.038700
H      3.185700    1.012900   -0.385800
H      1.391900   -0.531400   -1.805000
H      2.302600   -2.157800    0.568300
H      0.319700   -0.745900    2.223000
H     -0.858300   -0.508000   -0.305600
