12
gdb_16787
N     -0.067200    1.270400   -0.035500
C     -0.050300    0.018400    0.044600
O      1.087100   -0.771900    0.120600
C      0.749900   -2.118500    0.020000
O      1.563800   -2.980300    0.022600
N     -0.666000   -2.268600   -0.097600
C     -1.342700   -1.853700    1.156700
C     -1.216300   -0.903900    0.020500
H      0.876400    1.659700   -0.033500
H     -2.293600   -2.345800    1.326700
H     -0.729500   -1.698100    2.039300
H     -2.071500   -0.641700   -0.589200
