16
gdb_17867
O      0.030100    0.032800    0.030900
C      0.002600    1.227100   -0.004200
C     -1.108300    2.293500    0.054600
C     -0.048000    3.154000    0.820100
C      1.057200    2.354300    0.057900
C      1.137000    2.899800   -1.361200
C      0.003000    3.163600   -2.013100
C     -1.330600    2.867200   -1.365600
H     -2.045400    2.030000    0.548100
H     -0.067200    4.230000    0.637400
H     -0.049300    2.945700    1.892200
H      2.025100    2.166300    0.520500
H      2.112500    3.054200   -1.810100
H      0.008800    3.574700   -3.018100
H     -1.889100    2.138800   -1.969100
H     -1.958000    3.768400   -1.321800
