18
gdb_16466
C      0.033700    1.511800   -0.106300
C      0.020700    0.014100    0.035300
O      0.417300   -0.596200   -1.189100
C      0.353900   -1.997300   -0.893200
C     -0.101200   -1.957900    0.555800
C      0.654200   -0.765900    1.237000
C     -0.609900   -0.482300    2.079700
C     -1.155100   -0.803800    0.669800
H      1.037300    1.857700   -0.371800
H     -0.649700    1.822100   -0.902500
H     -0.268400    2.003600    0.821200
H     -0.360400   -2.494400   -1.562100
H      1.340600   -2.458700   -1.028800
H     -0.252600   -2.889600    1.101100
H      1.698600   -0.752200    1.554000
H     -0.838400   -1.214800    2.857800
H     -0.749200    0.534200    2.456100
H     -2.193200   -0.833800    0.333900
