22
gdb_13932
C     -0.532600    1.296800   -0.295400
C      0.194900   -0.037000   -0.236300
C      1.699100   -0.102900   -0.620600
C      1.901300   -1.145100    0.509900
C      0.560600   -0.669900    1.136300
C      0.688700    0.189700    2.428200
C      0.224900   -1.045400    3.246500
C     -0.326000   -1.657600    1.930500
H      0.008900    2.071700    0.258300
H     -0.634900    1.641400   -1.330600
H     -1.541100    1.226300    0.129000
H     -0.359800   -0.783300   -0.820400
H      1.954700   -0.398400   -1.641300
H      2.206800    0.841000   -0.396000
H      1.827600   -2.171200    0.134700
H      2.802900   -1.063600    1.124100
H      1.669900    0.616600    2.656000
H     -0.054000    0.993000    2.461200
H      1.070700   -1.617200    3.638000
H     -0.482100   -0.873100    4.061300
H     -1.391600   -1.440500    1.796200
H     -0.165900   -2.725500    1.753100
