15
gdb_7127
C      0.053800    1.406300   -0.132600
O     -0.001700    0.001800   -0.011100
C      0.612100   -0.653400   -1.075700
C      0.510800   -2.150500   -0.866800
O     -0.003400   -2.718400    0.049700
O      1.123500   -2.769000   -1.932500
C      1.150800   -4.142200   -1.951800
N      1.711600   -4.705000   -2.926000
H      1.091800    1.772400   -0.157700
H     -0.458500    1.757300   -1.041800
H     -0.449200    1.823000    0.742100
H      0.146500   -0.412800   -2.047100
H      1.680800   -0.394900   -1.173400
H      0.663100   -4.587300   -1.084400
H      1.660900   -5.716700   -2.815000
