10
gdb_3944
O      0.099200    1.382800   -0.003200
C      0.074400    0.037800    0.022100
N      0.028500   -0.731200   -1.056100
N      0.020000   -1.966200   -0.551100
N      0.057200   -2.054600    0.779700
C      0.092700   -0.788100    1.167700
O      0.138400   -0.386500    2.451000
H      0.076100    1.657300   -0.928000
H     -0.013400   -2.780600   -1.137700
H      0.138700   -1.177400    3.003900
