14
gdb_19274
C      0.124700    1.309400   -0.130400
O     -0.306100    0.010500    0.245000
C      0.530300   -0.597700    1.170100
C      0.161100   -2.028300    1.561300
O      0.356700   -2.841900    0.413300
C      1.511200   -2.561600    1.236000
C      1.945300   -1.178300    0.761200
O      2.958900   -0.696200    0.354700
H      1.114700    1.286900   -0.601500
H     -0.608200    1.690300   -0.844100
H      0.163700    1.983600    0.739000
H      0.692400    0.034700    2.063300
H     -0.528300   -2.372400    2.321900
H      2.059100   -3.399800    1.648000
