20
gdb_11856
C      0.109500    1.461100    0.213100
C     -0.038100   -0.045200   -0.023000
C      0.653100   -0.524700   -1.292800
C      2.216500   -0.511500   -1.338100
C      2.143300   -1.887500   -2.000100
C      2.808900   -2.354000   -3.217100
O      3.141100   -2.886600   -1.925300
C      0.682700   -2.058900   -1.582700
H      1.163400    1.748500    0.293800
H     -0.327400    2.035500   -0.611400
H     -0.390900    1.770500    1.135900
H      0.371800   -0.595300    0.834900
H     -1.103200   -0.307700   -0.072700
H      0.251500    0.012900   -2.159100
H      2.713700    0.293500   -1.884500
H      2.650800   -0.580300   -0.334400
H      2.296400   -3.043900   -3.887200
H      3.582700   -1.743700   -3.682100
H      0.601400   -2.646100   -0.661500
H     -0.018100   -2.457500   -2.320300
