18
gdb_14662
C     -0.052600    1.574100    0.069500
C      0.002000    0.035600    0.001400
C      0.679000   -0.460700   -1.188000
C      1.245100   -0.856500   -2.182900
C      1.880700   -1.302300   -3.300000
C      2.446800   -1.698100   -4.294900
C      3.123700   -2.194500   -5.484200
C      3.178200   -3.732900   -5.552400
H      0.954900    1.998000    0.076300
H     -0.585200    1.981900   -0.793500
H     -0.569600    1.894200    0.978900
H      0.507700   -0.353300    0.895100
H     -1.018200   -0.369400    0.033300
H      2.618100   -1.805500   -6.378000
H      4.143900   -1.789600   -5.516200
H      2.170600   -4.156800   -5.559200
H      3.695100   -4.053200   -6.461800
H      3.710800   -4.140800   -4.689300
