17
gdb_17700
C     -0.116900    1.506600   -0.044900
C      0.106200    0.034200    0.016600
C      0.398100   -1.003400   -1.003400
C      1.240200   -1.885000   -0.062200
C      0.286600   -3.005300    0.421500
C     -0.567200   -1.827900    0.918200
C      0.698600   -0.932900    1.082700
N     -0.939100   -0.991400   -0.300000
H      0.833400    2.051900   -0.060600
H     -0.675600    1.763600   -0.950400
H     -0.694200    1.856700    0.818500
H      0.392100   -0.955500   -2.085700
H      2.295100   -2.040600   -0.279000
H     -0.143400   -3.690400   -0.314700
H      0.713800   -3.565600    1.259300
H     -1.383500   -1.927900    1.632000
H      1.231200   -0.711800    2.004400
