16
gdb_12648
C     -0.357400    1.505300   -0.002400
C      0.102300    0.050900   -0.014200
C      0.933800   -0.406200   -1.236700
C      1.669300   -1.684100   -0.778900
C      1.942200   -1.461400    0.701300
O      2.741100   -2.013900    1.406900
C      0.976100   -0.329600    1.174500
O      0.968800    0.143900    2.278900
H      0.495900    2.183100   -0.108700
H     -1.054400    1.705500   -0.821400
H     -0.851800    1.740000    0.943600
H     -0.779000   -0.608300    0.058100
H      0.316000   -0.568000   -2.122600
H      1.663400    0.372600   -1.488700
H      1.015500   -2.562600   -0.868700
H      2.587200   -1.908600   -1.326100
