13
gdb_20506
C     -0.011600    1.463400    0.009900
C      0.009100    0.009900    0.002300
C      0.037300   -1.195200   -0.004100
C      0.031200   -2.608800   -0.011200
N      1.152200   -3.352300   -0.022100
N      0.688900   -4.591200   -0.025500
N     -0.629500   -4.745000   -0.017900
C     -1.073800   -3.491800   -0.008700
H      1.005500    1.869700    0.002300
H     -0.535300    1.857900   -0.868000
H     -0.518500    1.848900    0.901500
H      1.311500   -5.383100   -0.033500
H     -2.127600   -3.267200   -0.000800
