18
gdb_9692
C      0.016500    0.973800    0.438300
O     -0.136200   -0.148500   -0.420700
C     -1.402000   -0.734600   -0.307900
C     -1.513100   -2.146400   -0.823100
C     -1.506000   -1.882500    0.667700
O     -0.348200   -2.201000    1.394500
C     -2.725800   -2.121400    1.516200
O     -2.868600   -3.485300    1.872100
H      1.027400    1.357800    0.284800
H     -0.707000    1.762900    0.189300
H     -0.113500    0.695600    1.492300
H     -2.235200   -0.043800   -0.442700
H     -2.437600   -2.447300   -1.303200
H     -0.612900   -2.575900   -1.250300
H      0.390600   -1.774600    0.940400
H     -2.664900   -1.481100    2.411100
H     -3.628900   -1.842900    0.963700
H     -2.022100   -3.757000    2.244700
