21
gdb_6393
C     -0.094600    1.581200   -0.033800
C      0.080700    0.060500    0.029600
C      0.638700   -0.465800    1.364200
C     -0.292900   -0.179700    2.550500
C      0.940700   -1.968600    1.258500
C      1.791700   -2.493500    2.415000
N      1.630200   -3.822300    2.689800
O      2.568700   -1.795600    3.038700
H      0.847100    2.095500    0.188700
H     -0.416800    1.895100   -1.031700
H     -0.844100    1.938000    0.678800
H     -0.882200   -0.427600   -0.178800
H      0.757000   -0.250300   -0.777600
H      1.596600    0.030600    1.561900
H      0.138900   -0.558400    3.480600
H     -0.460500    0.892900    2.680500
H     -1.271700   -0.654800    2.405800
H      0.010100   -2.546200    1.179900
H      1.505500   -2.169100    0.337500
H      1.042800   -4.417500    2.133300
H      2.237000   -4.243300    3.374200
