15
gdb_10050
O      0.115300    1.391300    0.042200
C      0.045800   -0.009800   -0.034000
C     -1.412800   -0.529400    0.009900
C     -1.430000   -2.075400   -0.112200
C     -2.777300   -2.627600   -0.219000
N     -3.844300   -3.059800   -0.315200
C     -2.063400   -0.070700    1.233500
C     -2.541000    0.331100    2.261300
H     -0.313700    1.657200    0.864900
H      0.496900   -0.292200   -0.990900
H      0.621400   -0.497900    0.769100
H     -1.940700   -0.105000   -0.852400
H     -0.860600   -2.372400   -1.000300
H     -0.933100   -2.521100    0.756100
H     -2.999000    0.671300    3.157700
