15
gdb_7407
C      0.810900    0.987200    0.401900
C      0.096100   -0.261200   -0.025200
O      0.654700   -1.263500   -0.420800
C     -1.445400   -0.278100   -0.000900
O     -1.904900   -1.456500   -0.603900
C     -1.964800   -0.113400    1.452000
N     -2.632000   -1.198000    1.899700
O     -1.765600    0.903200    2.091500
H      1.876100    0.787000    0.522700
H      0.675200    1.751800   -0.373100
H      0.360400    1.383200    1.315700
H     -1.807000    0.607700   -0.542700
H     -1.091300   -1.959100   -0.798000
H     -2.820500   -1.948200    1.254700
H     -3.067500   -1.165400    2.806000
