16
gdb_14628
O      0.136200   -0.128200   -0.535200
C      0.115600    1.064100   -0.380700
C      1.335300    1.924700   -0.127700
C      1.448000    3.063400   -1.154700
C      2.607200    4.002600   -0.837400
O      2.621900    5.102300   -1.752900
C      3.596700    5.144000   -2.682500
O      3.667600    6.004100   -3.506000
H     -0.843200    1.632900   -0.419500
H      1.229900    2.355000    0.879500
H      2.219900    1.281100   -0.130600
H      1.584600    2.649500   -2.160500
H      0.521000    3.648200   -1.176200
H      2.499000    4.431200    0.164100
H      3.566100    3.468700   -0.873400
H      4.314300    4.304600   -2.587800
