14
gdb_1492
C     -0.001600    1.575900    0.042000
C     -0.005400    0.046600   -0.010700
C      0.712200   -0.574800    1.187500
C      0.727100   -2.084200    1.167900
O      0.236400   -2.779500    0.315000
C      1.418100   -2.708500    2.322400
N      1.960100   -3.180300    3.228500
H      1.019300    1.973100    0.045300
H     -0.519500    1.996400   -0.824500
H     -0.503900    1.945900    0.942500
H     -1.033000   -0.330000   -0.044400
H      0.472200   -0.303100   -0.931800
H      1.757100   -0.238000    1.255400
H      0.257700   -0.264200    2.139800
