15
gdb_7750
C      0.034400    1.510400    0.058800
C     -0.073600    0.017500    0.030900
C     -1.200400   -0.695100    0.065200
C     -1.089000   -2.188100    0.072000
O      0.085200   -2.654000   -0.629400
C      1.248400   -1.979600   -0.520700
O      2.296400   -2.470400   -0.849600
N      1.141600   -0.680100   -0.045600
H      0.639500    1.842100    0.911500
H      0.516000    1.890800   -0.850100
H     -0.952800    1.967000    0.144200
H     -2.173000   -0.224100    0.101500
H     -1.051100   -2.592000    1.095700
H     -1.928900   -2.665900   -0.438500
H      2.006900   -0.166200   -0.100300
