15
gdb_20597
C      0.228300    1.499500   -0.021700
C      0.108800    0.006700   -0.033000
C     -0.009300   -0.838500   -1.098900
C     -0.038200   -0.627000   -2.583100
O      0.927000    0.315300   -3.025400
O     -0.102100   -2.115300   -0.673500
N     -0.054800   -2.141900    0.714700
C      0.071800   -0.889000    1.074500
H      1.036800    1.828000    0.639900
H      0.437500    1.872300   -1.025800
H     -0.692800    1.973900    0.335800
H      0.074200   -1.603300   -3.075300
H     -1.005900   -0.217000   -2.891900
H      1.795000   -0.007800   -2.760500
H      0.136000   -0.651900    2.128200
