11
gdb_1218
N     -0.091000    1.248800    0.067200
C     -0.032000   -0.076800   -0.211200
O      0.692800   -0.607900   -1.015400
O     -0.912500   -0.746400    0.606200
C     -0.979200   -2.153300    0.400400
C     -2.235100   -2.520000   -0.264400
N     -3.223800   -2.821900   -0.779000
H      0.398200    1.869900   -0.552900
H     -0.845800    1.609100    0.624900
H     -0.130400   -2.477000   -0.208800
H     -0.934000   -2.634500    1.381200
