14
gdb_3496
C     -0.072500   -1.255000   -0.110600
C     -0.027400   -0.056100   -0.025900
C     -0.022600    1.388300    0.054300
C      0.026900    2.122700    1.425300
C      1.495500    1.654700    1.481000
N      1.362200    2.107900    0.010900
C      0.586300    3.300000    0.604400
H     -0.103500   -2.313900   -0.185100
H     -0.709700    1.812800   -0.684600
H     -0.734800    2.120900    2.212000
H      2.202600    2.261600    2.051700
H      1.696600    0.588600    1.592900
H     -0.072800    3.796100   -0.113700
H      1.232700    4.016600    1.115900
