18
gdb_13003
C     -0.039800    1.503900    0.023500
C     -0.016100    0.010400   -0.034700
C      0.024000   -0.781000   -1.111300
C     -0.001900   -2.254300   -0.758200
C      0.020400   -2.254200    0.767700
C      1.217400   -1.638800    1.468900
C     -0.026100   -0.814300    1.223300
O     -0.833700   -0.413000    2.290400
H      0.849400    1.899300    0.533000
H     -0.083000    1.947400   -0.974400
H     -0.909200    1.850800    0.594200
H      0.093900   -0.430200   -2.135600
H     -0.902100   -2.746600   -1.150300
H      0.853900   -2.795200   -1.183500
H     -0.533300   -3.007100    1.315100
H      1.383000   -1.975000    2.488200
H      2.116800   -1.414600    0.903100
H     -0.310100    0.156100    2.863800
