14
gdb_3086
C     -0.142600    1.572700   -0.039400
C      0.013400    0.070500   -0.001300
C      1.338600   -0.579000   -0.235300
O      2.412700    0.264600   -0.471600
C      0.720400   -0.627700    1.169200
C      1.340000    0.139100    2.207900
N      1.863100    0.741000    3.047100
H      0.761800    2.075000    0.306200
H     -0.341900    1.903400   -1.063500
H     -0.979100    1.890600    0.590000
H     -0.842800   -0.489100   -0.367300
H      1.362000   -1.528600   -0.769400
H      3.175900   -0.049500    0.026100
H      0.314700   -1.577800    1.500300
