18
gdb_6380
C      0.089800    1.371000    0.097200
O      0.210900   -0.056900    0.007800
C      0.511200   -0.539600   -1.207300
O      0.697200    0.171700   -2.171900
C      0.569900   -2.050900   -1.215600
C      1.452800   -2.597600   -2.353300
C      1.514400   -4.119400   -2.329800
O      0.949600   -2.211600   -3.617500
H      1.032700    1.853500   -0.171000
H     -0.694100    1.733000   -0.572400
H     -0.165800    1.580400    1.135500
H      0.907100   -2.400900   -0.235700
H     -0.455400   -2.418600   -1.354700
H      2.472400   -2.199700   -2.209900
H      2.132300   -4.476800   -3.157400
H      1.942000   -4.483800   -1.390700
H      0.511600   -4.543000   -2.447300
H      0.881100   -1.246300   -3.591600
