17
gdb_7661
C     -0.088000    1.543800   -0.049900
C     -0.005200    0.029300   -0.031500
O     -1.277200   -0.535100   -0.334000
C      1.262900   -0.674200   -0.634000
N      2.001900   -0.115700    0.565900
C      0.721800   -0.691500    1.140700
C      0.930000   -1.951300    0.220100
O     -0.056600   -2.871700   -0.093400
H      0.870300    1.986000    0.219200
H     -0.364300    1.898200   -1.051900
H     -0.857700    1.885700    0.649300
H     -1.627100   -0.085300   -1.110100
H      1.668500   -0.595800   -1.645200
H      2.777200   -0.743600    0.797400
H      0.491400   -0.634500    2.206300
H      1.827700   -2.518600    0.489400
H     -0.849900   -2.358400   -0.304300
