15
gdb_13829
N     -0.047300    1.332100    0.044200
C      0.034700   -0.036300    0.030100
O      1.101500   -0.623000    0.021600
C     -1.273200   -0.745000    0.056400
C     -1.404100   -2.069900    0.009600
C     -2.850800   -2.445800    0.060700
O     -3.559600   -1.209700    0.138700
C     -2.645700   -0.119300    0.149700
H      0.813100    1.842500   -0.075600
H     -0.909700    1.817600   -0.133500
H     -0.585200   -2.773900   -0.053300
H     -3.170100   -3.006200   -0.832200
H     -3.088400   -3.072400    0.935100
H     -2.774800    0.468900    1.072400
H     -2.864000    0.551900   -0.698400
