14
gdb_1064
C     -0.768300    1.107800    0.054000
C      0.568600    0.370200   -0.053800
C      0.985700   -0.318300    1.206200
C      0.372300   -0.393300    2.413600
O      1.154900   -1.143200    3.252500
C      2.216000   -1.484900    2.490600
N      2.182900   -1.035800    1.281100
H     -0.732800    1.884100    0.825400
H     -1.020800    1.590500   -0.893900
H     -1.582400    0.420300    0.306200
H      0.524400   -0.374200   -0.858900
H      1.362100    1.069000   -0.347400
H     -0.543600   -0.012200    2.829100
H      2.975300   -2.090200    2.960700
