17
gdb_1319
C      0.005500    1.555100   -0.112900
C      0.058800    0.053200    0.060000
O      0.959500   -0.596100   -0.870600
C      1.436100   -1.489400    0.154500
C      0.779700   -0.618300    1.259300
C      1.760900    0.246100    2.037400
O     -0.145200   -1.257800    2.113100
H      0.996300    2.008300   -0.025400
H     -0.392000    1.799900   -1.102900
H     -0.656900    2.001600    0.636300
H     -0.951300   -0.374300   -0.023300
H      0.981100   -2.486500    0.084900
H      2.529000   -1.576200    0.149200
H      2.461100    0.754200    1.369000
H      1.233700    0.999000    2.631100
H      2.354100   -0.376400    2.719700
H      0.324400   -1.572100    2.892800
