16
gdb_21027
C     -0.031600    1.374000    0.066400
N      0.036900   -0.068000    0.027600
N     -0.049000   -0.755100   -1.101700
C     -0.020900   -2.034800   -0.718100
C     -0.092700   -3.173500   -1.680100
C      0.084500   -2.054700    0.690800
N      0.082300   -3.158100    1.540900
N      0.120900   -0.802300    1.143700
H      0.778700    1.765600    0.685800
H      0.070800    1.735000   -0.956200
H     -0.988400    1.708100    0.480900
H      0.830300   -3.767400   -1.683900
H     -0.914500   -3.854300   -1.430700
H     -0.251800   -2.797100   -2.692600
H      0.634400   -3.931900    1.195500
H      0.369000   -2.911300    2.479400
