22
gdb_9768
C      0.006800    1.491200    0.247300
C     -0.103900   -0.022700    0.047000
C     -1.541800   -0.546300   -0.150200
C     -2.169700   -0.035200   -1.450300
C     -1.585400   -2.093700   -0.049300
C     -2.003000   -2.350000    1.405700
C     -2.923800   -1.156700    1.661100
O     -2.340300   -0.069100    0.958900
H      1.037000    1.774200    0.484800
H     -0.286100    2.046400   -0.649100
H     -0.637200    1.812300    1.069600
H      0.499100   -0.335100   -0.815500
H      0.320600   -0.529800    0.922600
H     -1.603400   -0.384300   -2.320800
H     -3.197500   -0.398900   -1.542900
H     -2.197500    1.057000   -1.473000
H     -2.339200   -2.496000   -0.734400
H     -0.626200   -2.547700   -0.310600
H     -2.497600   -3.313800    1.551100
H     -1.136600   -2.309600    2.074100
H     -3.939900   -1.363300    1.285400
H     -3.006900   -0.878100    2.716600
