20
gdb_8954
C     -0.035300    1.568600    0.067900
C     -0.011400    0.040500   -0.011100
C      0.747600   -0.483700   -1.232100
O      2.112000   -0.062900   -1.239700
C      0.661900   -2.010100   -1.357200
O     -0.705300   -2.372200   -1.434500
C      1.403600   -2.531400   -2.585000
O      1.141600   -3.934400   -2.634300
H      0.979200    1.976800    0.056300
H     -0.573300    1.996900   -0.785000
H     -0.532900    1.909500    0.980700
H      0.458300   -0.376700    0.893200
H     -1.027400   -0.364100   -0.041100
H      0.312800   -0.046500   -2.140300
H      2.500200   -0.323500   -0.396400
H      1.128200   -2.463800   -0.461800
H     -0.711600   -3.276900   -1.772700
H      1.014800   -2.027100   -3.482200
H      2.475800   -2.319300   -2.502100
H      1.409100   -4.266800   -3.495200
