17
gdb_11720
C     -0.235800    1.540500    0.065200
C      0.098400    0.062000   -0.009600
C      1.187500   -0.451100   -0.993600
C      1.885900   -1.043700    0.222100
C      2.156800    0.003000    1.242100
N      0.802500   -0.534300    1.202100
C      2.394300   -2.421200    0.343000
O      2.583400   -3.156900   -0.595700
H      0.655300    2.169500    0.152100
H     -0.768100    1.847800   -0.841200
H     -0.882700    1.743900    0.924600
H     -0.824200   -0.511800   -0.126700
H      0.831100   -1.209300   -1.691100
H      1.756700    0.301700   -1.546100
H      2.696200   -0.291800    2.137800
H      2.370200    1.012100    0.898300
H      2.583300   -2.743200    1.391900
