18
gdb_10203
O     -0.157900    1.500900   -0.158500
C      0.023800    0.102300   -0.003200
C     -1.365500   -0.525700    0.051800
C     -1.355200   -2.069500    0.052900
C     -0.709200   -2.668900    1.327500
O     -0.718100   -4.078300    1.327600
C     -2.710600   -2.602100   -0.082700
C     -3.820100   -3.064400   -0.141500
H      0.707300    1.920400   -0.149500
H      0.589500   -0.324600   -0.848500
H      0.590100   -0.121000    0.913700
H     -1.896000   -0.158200    0.937300
H     -1.927200   -0.172200   -0.818300
H     -0.765400   -2.423000   -0.804500
H      0.342400   -2.373200    1.381300
H     -1.222000   -2.253800    2.210400
H     -1.635300   -4.354200    1.208100
H     -4.803600   -3.457100   -0.222700
