20
gdb_13630
C     -0.197800    1.517000   -0.032800
C     -0.101900   -0.001900   -0.190800
C      1.061400   -0.441100   -1.087300
O      2.325500   -0.003500   -0.592300
C      1.073400   -1.947200   -1.268900
O      0.013700   -2.525100   -2.036100
C      1.357000   -2.648900   -2.530300
C      1.683800   -1.983900   -3.841700
H      0.739700    1.927800    0.351900
H     -0.399300    1.999300   -0.995600
H     -1.003000    1.793400    0.654100
H      0.017700   -0.477300    0.794700
H     -1.027900   -0.406900   -0.614600
H      0.957400    0.044200   -2.062700
H      2.417500   -0.333300    0.309000
H      1.291100   -2.487800   -0.340900
H      1.753700   -3.662200   -2.433700
H      1.254900   -0.982600   -3.910900
H      2.768900   -1.908600   -3.968200
H      1.288400   -2.577900   -4.672400
