17
gdb_14679
C      0.684400    0.900100    0.351800
O     -0.001200    0.124100   -0.622500
C      0.656600   -0.971000   -1.054400
N      0.127700   -1.718600   -1.917400
C      0.847600   -2.900700   -2.377800
C      2.173000   -3.172300   -1.809800
C      3.260800   -3.387700   -1.338000
C      4.577600   -3.671800   -0.784300
H      0.879900    0.321600    1.263200
H      1.633000    1.289500   -0.037700
H      0.028900    1.737100    0.595100
H      1.642500   -1.129300   -0.599200
H      0.196500   -3.767900   -2.202300
H      0.933100   -2.825500   -3.470400
H      4.997800   -4.585100   -1.220000
H      5.281700   -2.856800   -0.985400
H      4.534200   -3.814300    0.301100
