21
gdb_4030
C      0.116800    1.519500   -0.257300
C     -0.006800    0.023300    0.088100
C     -1.422200   -0.505200    0.008500
N     -2.036600   -0.732400   -1.089300
O     -1.247000   -0.424100   -2.215100
C     -2.166900   -0.820800    1.293200
C     -2.367000    0.450500    2.143200
C     -3.499300   -1.543300    1.071100
H      1.162000    1.838400   -0.195600
H     -0.241000    1.706300   -1.271300
H     -0.464500    2.140200    0.430800
H      0.607400   -0.550200   -0.614200
H      0.388700   -0.159800    1.092700
H     -1.830100   -0.672000   -2.939600
H     -1.505800   -1.489100    1.866800
H     -3.020200    1.161300    1.625800
H     -2.835300    0.195800    3.099200
H     -1.421600    0.955500    2.361000
H     -3.364100   -2.463300    0.497800
H     -3.952300   -1.795900    2.035400
H     -4.200300   -0.913200    0.516600
