20
gdb_9391
C      0.070100    1.374500    0.092200
O      0.032000   -0.031300    0.077400
C     -1.276900   -0.545000   -0.037100
C     -1.183400   -2.066300   -0.065700
C     -2.556800   -2.777500   -0.042200
C     -3.409500   -2.489000   -1.295900
C     -2.372600   -4.218600    0.127800
C     -2.210600   -5.403800    0.247200
H      1.117500    1.673400    0.180200
H     -0.345800    1.806200   -0.832600
H     -0.490600    1.791100    0.944500
H     -1.895600   -0.215100    0.817500
H     -1.757200   -0.154600   -0.949600
H     -0.624200   -2.379800   -0.954200
H     -0.599900   -2.385800    0.803200
H     -3.109900   -2.407600    0.833700
H     -4.351700   -3.041200   -1.254600
H     -3.642900   -1.423800   -1.377300
H     -2.876600   -2.796400   -2.201000
H     -2.072700   -6.450200    0.363400
