24
gdb_14792
C     -0.006300    1.570300    0.037900
C      0.018000    0.039400    0.026000
C      0.739400   -0.554500    1.239900
C      0.763800   -2.076700    1.228500
O      1.445100   -2.531000    2.377500
C      1.522700   -3.936600    2.464500
C      2.273300   -4.311900    3.734900
C      2.405800   -5.826200    3.912100
H      1.009200    1.981400    0.038700
H     -0.526700    1.968600   -0.838700
H     -0.516000    1.950300    0.930100
H     -1.011100   -0.342200   -0.010000
H      0.503100   -0.311300   -0.894700
H      1.772900   -0.188600    1.279500
H      0.255800   -0.219500    2.165900
H     -0.265700   -2.476800    1.209800
H      1.263900   -2.445600    0.315200
H      0.509700   -4.377700    2.473900
H      2.039000   -4.348700    1.578900
H      3.264200   -3.844300    3.703900
H      1.748300   -3.873000    4.591200
H      1.424100   -6.309700    3.969400
H      2.949500   -6.280800    3.076500
H      2.948000   -6.068700    4.830600
