16
gdb_12404
O     -0.026500    1.417200    0.096400
C     -0.036000    0.020400   -0.010400
C     -1.453900   -0.540900    0.055700
C     -1.372400   -2.052000   -0.164500
C     -0.747500   -2.343800   -1.522500
O      0.491000   -1.640200   -1.772900
C      0.702500   -0.406300   -1.283500
O      1.520100    0.319600   -1.791500
H      0.714500    1.713300   -0.453700
H      0.546300   -0.439100    0.812400
H     -1.902600   -0.292800    1.021500
H     -2.066700   -0.065300   -0.719600
H     -0.774900   -2.516200    0.629500
H     -2.363200   -2.516900   -0.133900
H     -0.498700   -3.400900   -1.638800
H     -1.439800   -2.067800   -2.327700
