16
gdb_17217
C      0.044400   -1.134800   -0.064500
C      0.016800    0.068200   -0.016200
C     -0.038000    1.485700    0.056300
C     -1.135600    2.355600    0.682900
C     -0.486300    3.544400   -0.071200
C      0.900300    3.709000    0.612600
C      1.246200    2.358100   -0.005900
C      0.184000    2.503800   -1.059000
H      0.071600   -2.194900   -0.108400
H     -2.113300    2.091600    0.272500
H     -1.194200    2.418000    1.775400
H     -1.076800    4.411000   -0.357800
H      1.486700    4.508700    0.151300
H      0.916800    3.818500    1.702800
H      2.210100    1.875200   -0.096600
H      0.192300    2.373300   -2.131000
