17
gdb_13524
N      0.040500    1.275200    0.272400
C      0.052100   -0.045200   -0.050100
O      1.099000   -0.631800   -0.305700
C     -1.300400   -0.723300   -0.099000
C     -1.773700   -0.987300   -1.570400
C     -1.223300   -2.433000   -1.475700
C     -1.197800   -2.284600    0.071300
O     -0.150000   -2.827100    0.808400
H      0.916600    1.771200    0.300600
H     -0.806600    1.767200    0.493500
H     -2.016200   -0.208500    0.548400
H     -2.863400   -0.949800   -1.640300
H     -1.351400   -0.341300   -2.342600
H     -1.824200   -3.240800   -1.899100
H     -0.205000   -2.495600   -1.865400
H     -2.126400   -2.658800    0.514200
H      0.651400   -2.385900    0.483500
