20
gdb_9925
C     -0.221200    1.005100   -1.802300
C     -0.018500   -0.197700   -0.906400
C      1.324000   -0.625600   -0.367700
C      2.619100    0.099800   -0.662600
C      0.265800   -0.072900    0.596200
C      0.436200    1.290200    1.254400
C     -0.382900   -1.037600    1.446700
C     -0.926300   -1.832700    2.169300
H      0.458400    1.829600   -1.576800
H     -0.060800    0.728900   -2.850600
H     -1.244000    1.387700   -1.715800
H     -0.685600   -1.020500   -1.147900
H      1.451600   -1.701800   -0.290300
H      2.495200    1.180400   -0.759100
H      3.354700   -0.078300    0.129300
H      3.052100   -0.263100   -1.601600
H      0.928300    2.012100    0.600900
H     -0.538100    1.701700    1.535800
H      1.034500    1.200600    2.166400
H     -1.404900   -2.537000    2.802900
