16
gdb_18489
N     -0.098700   -1.080100   -0.299800
C     -0.066200    0.053100   -0.074200
C      0.006200    1.484700    0.206900
C      1.428700    2.040400    0.058100
C      2.068800    2.074500   -1.380000
C      2.175800    3.596200   -1.248100
N      0.791100    4.089000   -1.049400
C      1.561500    3.570600    0.107000
H     -0.656400    2.022000   -0.479300
H     -0.365800    1.659600    1.223600
H      2.102100    1.556400    0.768800
H      3.034100    1.566800   -1.412100
H      1.441200    1.720200   -2.201300
H      2.941500    4.248100   -1.649200
H      0.832500    5.106500   -1.004600
H      1.743300    4.190200    0.976700
