13
gdb_4441
C      0.099100    1.488600    0.040000
C     -0.048700    0.017900    0.037900
C     -1.086600   -0.810600   -0.030300
O     -2.406500   -0.594300   -0.053200
O     -0.648900   -2.125800    0.012800
C      0.727800   -2.070600    0.111300
N      1.535600   -3.031000    0.160100
O      1.105300   -0.768400    0.149700
H      0.747900    1.823000   -0.777300
H     -0.882400    1.952100   -0.081100
H      0.538000    1.845900    0.978500
H     -2.817600   -1.192000   -0.691200
H      1.042400   -3.918800    0.125600
