15
gdb_13862
N      0.546800    0.021800    0.757200
C     -0.173500    0.396400   -0.327600
O      0.158500    1.251900   -1.126400
C     -1.493400   -0.358200   -0.507800
C     -1.579300   -1.047600   -1.896400
O     -2.106900   -2.332900   -1.595600
C     -1.618800   -2.631400   -0.321300
O     -1.678900   -1.424400    0.426400
H      1.404100    0.504300    0.968600
H      0.169000   -0.660600    1.392500
H     -2.304800    0.363400   -0.367400
H     -2.258300   -0.547400   -2.587000
H     -0.586100   -1.118100   -2.359200
H     -2.261600   -3.379100    0.150200
H     -0.575000   -2.992700   -0.368600
