16
gdb_1126
C     -0.097500    1.610100    0.008800
C     -0.019800    0.080900   -0.009200
N      0.873900   -0.474400    1.033500
H      0.637900   -0.079200    1.941000
H      0.240700   -2.113300    0.812200
H      1.841100   -0.227800    0.847600
C     -1.409000   -0.563200    0.141500
C     -1.461900   -2.086900   -0.037600
O     -0.415900   -2.764900    0.452100
O     -2.393300   -2.638600   -0.562800
H      0.897800    2.053700   -0.099800
H     -0.724900    1.984600   -0.806100
H     -0.526700    1.966500    0.953000
H      0.404700   -0.239200   -0.968900
H     -1.802900   -0.331400    1.141900
H     -2.110500   -0.135900   -0.577400
