19
gdb_15344
C      0.036000   -2.873800    1.277600
C     -0.317800   -1.388300    1.422300
C     -1.462300   -0.997400    0.508800
C     -2.884000   -1.037800    0.961400
N     -2.241400    0.234800    0.649500
C     -1.957200    1.215600    1.706300
C     -2.091700    0.801200    3.106800
C     -2.242700    0.477300    4.255700
H      0.886500   -3.140200    1.912200
H     -0.809600   -3.508800    1.561600
H      0.302100   -3.119500    0.243500
H     -0.569000   -1.164800    2.462400
H      0.563200   -0.780800    1.173900
H     -1.269600   -1.232100   -0.539400
H     -3.683200   -1.338800    0.288400
H     -3.054700   -1.272700    2.010100
H     -0.947100    1.607800    1.536900
H     -2.640900    2.058400    1.542500
H     -2.363000    0.195300    5.272700
