20
gdb_19060
C      0.019200    1.517800    0.034200
C     -0.023600    0.004100    0.004700
C      1.266200   -0.730700   -0.279400
C      0.669200   -0.741100    1.122300
C      0.466000   -2.257500    1.312800
C      1.843700   -2.790700    0.779300
C      1.270900   -2.243500   -0.577000
C     -0.099400   -2.748700   -0.048100
H      0.969200    1.880400    0.441500
H     -0.091600    1.936600   -0.972100
H     -0.785400    1.924500    0.656800
H     -0.952300   -0.390500   -0.393800
H      2.154600   -0.155100   -0.518600
H      1.109100   -0.173400    1.935800
H      0.043500   -2.593200    2.260400
H      2.751900   -2.322500    1.169600
H      1.929200   -3.880900    0.807600
H      1.663300   -2.564900   -1.542300
H     -0.158800   -3.838700   -0.081400
H     -1.026900   -2.329700   -0.440000
