16
gdb_9047
C     -0.062800    1.580100    0.112600
C      0.036700    0.044600    0.015000
C      0.736800   -0.455900   -1.271000
C     -0.054100   -0.108800   -2.548200
C      0.580500   -0.652900   -3.746600
N      1.093900   -1.087100   -4.686000
C      0.741600   -0.488500    1.186300
N      1.306800   -0.902400    2.105300
H      0.929600    2.036300    0.056000
H     -0.677300    1.980200   -0.697500
H     -0.520500    1.876600    1.059000
H     -0.978200   -0.375000    0.040800
H      1.741000   -0.024700   -1.331000
H      0.861500   -1.540600   -1.213200
H     -1.074000   -0.507100   -2.484600
H     -0.144500    0.975000   -2.673700
