18
gdb_17468
C     -0.047300    1.549300    0.079800
C     -0.010700    0.041000    0.084000
C     -1.294200   -0.731600   -0.250500
N     -1.365200   -1.954300    0.584700
C     -0.392300   -3.010600    0.289300
C     -0.106300   -2.023600    1.362200
C      0.736900   -0.803500    1.068000
N      1.273100   -0.577800   -0.281400
H      0.926900    1.950500    0.368700
H     -0.282200    1.933700   -0.919700
H     -0.806400    1.928800    0.772400
H     -2.164500   -0.113400   -0.004500
H     -1.369200   -0.983600   -1.315800
H     -0.723100   -4.012900    0.551600
H      0.174800   -2.973700   -0.638400
H     -0.189900   -2.316500    2.405600
H      1.331600   -0.391900    1.878000
H      1.159300   -1.391400   -0.878100
