18
gdb_11577
O      0.361900    0.208600    1.010600
C     -0.216800    0.289500   -0.281100
C     -1.530800   -0.494100   -0.404100
O     -2.106900   -0.292300   -1.690600
C     -1.357400   -1.979900   -0.071200
C     -2.678400   -2.701300    0.024700
C     -2.895500   -3.814600    0.955000
O     -3.405600   -2.512100    1.245500
H     -0.220400    0.668100    1.624700
H     -0.397900    1.328600   -0.591400
H      0.528000   -0.133300   -0.968500
H     -2.259400   -0.065500    0.297100
H     -1.505700   -0.668000   -2.344100
H     -0.734800   -2.449400   -0.848000
H     -0.815500   -2.068100    0.875400
H     -3.302300   -2.649000   -0.867700
H     -3.645400   -4.572600    0.732400
H     -2.076000   -4.147700    1.591400
