14
gdb_21578
N      0.066800    1.347300   -0.079200
C     -0.033300   -0.000200   -0.000200
C     -1.183600   -0.738000    0.076000
C     -1.097500   -2.152300    0.195300
N      0.015300   -2.826000    0.235500
N      1.142800   -2.070400    0.149400
C      1.259600   -0.702300    0.024100
N      2.348700   -0.018200   -0.074400
H      0.995800    1.698900   -0.265800
H     -0.733600    1.909500   -0.307600
H     -2.156200   -0.258800    0.053000
H     -1.999800   -2.750900    0.262300
H      1.991000   -2.616000    0.173500
H      3.182500   -0.603900   -0.054500
