14
gdb_20620
C      0.038600    1.576600   -0.026000
C      0.058500    0.081200   -0.018000
C      0.000800   -0.798400   -1.083900
O     -0.093600   -0.615100   -2.418600
N      0.046000   -2.056300   -0.601300
N      0.133200   -2.079400    0.767300
C      0.140500   -0.799200    1.090300
O      0.215300   -0.388900    2.375300
H      1.030500    2.014300    0.140000
H     -0.334400    1.970700   -0.979600
H     -0.619900    1.965300    0.757100
H     -0.079300    0.330500   -2.599000
H      0.017900   -2.913900   -1.122700
H      0.242000   -1.184500    2.922000
