16
gdb_13593
C      0.297200    1.506200   -0.462900
C      0.035500    0.092500   -0.019200
O      1.146300   -0.781800    0.103500
C      0.444100   -0.466300    1.301300
C      1.150000    0.363100    2.327100
O      2.089600    1.090800    2.082200
C      0.624500    0.271600    3.752900
O      1.294000    1.154600    4.597200
H      1.170400    1.919600    0.042100
H      0.474800    1.521700   -1.543200
H     -0.575700    2.135000   -0.258600
H     -0.846000   -0.380600   -0.458100
H     -0.157100   -1.280300    1.709600
H     -0.460300    0.472600    3.741700
H      0.736200   -0.776300    4.084400
H      1.987100    1.554100    4.046500
