18
gdb_20208
C     -0.035900    1.561400   -0.078500
C      1.449700    1.992900    0.004100
C      2.161600    0.860800    0.778200
C      1.867300    0.907300    2.288500
O      0.551900    0.362200    2.448300
C      0.338500   -0.542000    1.391300
C     -0.004100    0.037500    0.033000
C      1.411400   -0.421600    0.355400
H     -0.617700    1.995400    0.741000
H     -0.499100    1.879700   -1.016200
H      1.871100    2.049700   -1.005700
H      1.586700    2.974100    0.470700
H      3.235100    0.824500    0.579300
H      2.595200    0.298400    2.846400
H      1.863900    1.918600    2.707200
H     -0.085200   -1.491000    1.703500
H     -0.637500   -0.559500   -0.614700
H      1.908800   -1.261300   -0.112700
