14
gdb_15310
O     -0.498500    0.575600    0.775500
C     -0.068300    1.169300   -0.176300
C      1.367300    1.664300   -0.284800
N      1.419300    2.827100   -1.163300
C      1.409000    4.141500   -0.546800
C      2.652000    3.621200   -1.208500
C      3.786800    3.270600   -0.388400
N      4.706800    2.972000    0.245800
H     -0.689700    1.388100   -1.072300
H      1.771400    1.827700    0.724200
H      1.953700    0.858200   -0.746900
H      0.825700    4.905300   -1.051900
H      1.423500    4.202300    0.539700
H      2.920000    3.981300   -2.197800
