16
gdb_3139
O      0.236400    1.334300    0.120800
C      0.030400   -0.041900   -0.172100
C     -1.415500   -0.431600   -0.061700
C     -2.022400   -0.935400    1.192100
N     -1.863100   -1.880600    0.070400
C     -2.996700   -1.562800   -0.874000
C     -2.504300   -0.108300   -1.086500
H     -0.084700    1.488900    1.015600
H      0.384800   -0.179600   -1.199400
H      0.632600   -0.698900    0.474500
H     -1.359400   -1.155900    2.024300
H     -3.025100   -0.624300    1.481400
H     -2.926700   -2.191400   -1.763400
H     -3.985200   -1.695300   -0.421800
H     -3.185100    0.710800   -0.839300
H     -2.103900    0.061200   -2.088300
