13
gdb_20522
C     -0.047600    1.499400    0.009600
C      0.039500   -0.008500    0.002300
O      1.087800   -0.616000   -0.009000
C     -1.243600   -0.772100    0.009800
N     -2.409500   -0.161300    0.022000
O     -3.357100   -1.163300    0.025800
C     -2.733500   -2.358000    0.015500
C     -1.390500   -2.189400    0.004900
H      0.958600    1.918800    0.002700
H     -0.611700    1.849600   -0.860600
H     -0.596400    1.841900    0.892600
H     -3.381200   -3.220500    0.017300
H     -0.607600   -2.927200   -0.004900
