16
gdb_3225
C     -0.020700    1.530000    0.041600
C      0.023600    0.031200    0.009000
C     -0.882500   -0.876600    0.797200
C      0.610400   -0.956300    1.012800
C      1.333000   -1.688200   -0.154100
N      0.318000   -2.171300   -1.127500
C      0.755100   -0.750800   -1.133200
H      0.960500    1.966700   -0.181600
H     -0.733400    1.926300   -0.692900
H     -0.327900    1.891300    1.028300
H     -1.419300   -0.379400    1.600200
H     -1.413900   -1.691300    0.322200
H      1.080100   -0.749100    1.966100
H      2.318200   -2.133300   -0.106000
H      0.827100   -2.638800   -1.877400
H      1.187800   -0.298000   -2.016700
