20
gdb_17957
C     -0.031900    1.536100    0.195200
C      1.367900    2.170100   -0.008500
C      1.790500    2.450600   -1.433800
C      2.147800    1.543300   -2.342300
C      2.125300    0.048000   -2.109000
C      0.736200   -0.506900   -2.339900
C     -0.237900   -0.495300   -1.430300
C     -0.125100    0.001800   -0.006000
H     -0.331200    1.743300    1.230000
H     -0.764300    2.039600   -0.445500
H      1.387900    3.115400    0.544400
H      2.109900    1.525400    0.482600
H      1.791700    3.497500   -1.730300
H      2.417300    1.875700   -3.342300
H      2.843200   -0.447100   -2.770600
H      2.438600   -0.166600   -1.079700
H      0.520700   -0.878800   -3.339100
H     -1.215800   -0.870300   -1.725200
H      0.742500   -0.460500    0.484900
H     -1.000400   -0.353300    0.548400
