16
gdb_20791
C      0.043200    1.648800    0.345900
C     -0.007700    0.173700   -0.089500
C     -1.395100   -0.367800   -0.153700
C     -2.179900   -0.844600   -1.163300
C     -1.922900   -1.015400   -2.622100
N     -3.385600   -1.189700   -0.585100
N     -3.379400   -0.961300    0.649900
O     -2.098500   -0.422100    0.983500
H      1.079300    1.994800    0.393600
H     -0.498700    2.285000   -0.359900
H     -0.408400    1.777100    1.332800
H      0.455800    0.052500   -1.073100
H      0.576300   -0.434800    0.611500
H     -2.038300   -2.061500   -2.922800
H     -2.625000   -0.424200   -3.218700
H     -0.909500   -0.698500   -2.880000
