12
gdb_8623
O     -0.010700    1.493900    0.137500
C      0.003400    0.099600    0.045000
C     -1.460400   -0.413900   -0.054100
O     -1.753500   -1.566400   -0.194900
C      0.724200   -0.335200   -1.253300
O      1.232200    0.486700   -1.967500
C      0.693300   -0.557600    1.156000
C      1.270700   -1.113300    2.050900
H      0.554100    1.811800   -0.587400
H     -2.191800    0.419300   -0.012700
H      0.733500   -1.419600   -1.453000
H      1.773900   -1.595100    2.853400
