22
gdb_7134
C      0.011100    1.621100   -0.048700
C     -0.009800    0.092300    0.018800
C      0.673000   -0.561100   -1.182800
C      0.669000   -2.085300   -1.147500
O      0.159600   -2.702700   -0.239000
C      1.342600   -2.788300   -2.320800
C      1.305900   -4.314300   -2.237900
C      1.990800   -4.987700   -3.429500
H      1.036800    2.006300   -0.078000
H     -0.503500    1.989000   -0.943800
H     -0.483500    2.061800    0.822400
H      0.478600   -0.252600    0.936400
H     -1.041500   -0.269700    0.081800
H      0.198800   -0.243200   -2.123000
H      1.717100   -0.226700   -1.269700
H      0.865800   -2.434800   -3.246800
H      2.378600   -2.424500   -2.383800
H      1.777900   -4.631000   -1.301700
H      0.263300   -4.641800   -2.166200
H      1.511400   -4.710400   -4.375400
H      3.046000   -4.699700   -3.499500
H      1.949800   -6.077900   -3.344400
