18
gdb_19454
C     -0.070400   -1.208000   -0.098300
C     -0.033500   -0.006800   -0.036700
C     -0.007800    1.440200    0.017900
C     -0.068700    2.079200    1.454800
C      1.453100    1.775400    1.552500
C      1.417900    2.106400    0.033600
C      1.051700    3.601800    0.033600
C     -0.081000    3.581000    1.116400
H     -0.101700   -2.267800   -0.151400
H     -0.712900    1.854800   -0.711700
H     -0.781200    1.715900    2.194800
H      2.061300    2.413100    2.200900
H      1.659400    0.722800    1.748100
H      2.195800    1.770500   -0.651300
H      1.899300    4.229800    0.321700
H      0.696300    3.945600   -0.942100
H     -1.046100    3.913700    0.723700
H      0.156800    4.197900    1.987600
