16
gdb_18930
C     -0.018200    1.527600   -0.001100
C      0.072200    0.006500    0.027000
C      1.065400   -0.619900   -0.979100
O      2.324700    0.023400   -0.614100
C      2.264500   -0.777600    0.564200
C      1.486600   -1.903600   -0.116500
O      0.573500   -2.062100    0.966800
C      0.808500   -0.643400    1.221600
H      0.974300    1.980200    0.044600
H     -0.505600    1.873400   -0.918700
H     -0.608300    1.894600    0.845100
H     -0.916400   -0.455500   -0.048600
H      0.862300   -0.615300   -2.048200
H      3.169700   -0.830800    1.165400
H      1.860600   -2.814300   -0.579700
H      0.602000   -0.333500    2.244200
