11
gdb_680
N     -0.056200    1.213900   -0.024700
C     -0.066800   -0.036100    0.041100
O      0.990300   -0.943400    0.175000
C      0.065700   -2.045300   -0.022700
C     -0.906200   -2.081800    1.097500
C     -1.111200   -1.098500   -0.062700
H      0.893500    1.580600    0.055600
H      0.377700   -2.847400   -0.676400
H     -1.606800   -2.911300    1.097000
H     -0.609900   -1.720900    2.077200
H     -2.001600   -1.075500   -0.672400
