16
gdb_21288
C     -0.048800    1.388100    0.090500
O     -0.020400   -0.034000    0.048700
C      0.632500   -0.634600    1.060900
N      1.221600    0.029600    2.045100
N      1.741700   -0.954400    2.821500
C      1.486900   -2.194600    2.339200
C      0.757900   -2.044500    1.178800
C      0.218300   -3.086200    0.252000
H      0.964600    1.802700    0.060600
H     -0.610800    1.705000   -0.789400
H     -0.540800    1.745000    1.001600
H      2.249500   -0.701000    3.649500
H      1.834600   -3.082900    2.844300
H     -0.872700   -3.025700    0.168700
H      0.619200   -2.971100   -0.761400
H      0.471700   -4.091600    0.599500
