19
gdb_8892
C     -0.242300    1.446500    0.134100
N     -0.170800    0.002600    0.240400
C      0.897200   -0.644000    0.791000
O      1.864800   -0.057800    1.250000
C      0.811900   -2.170200    0.786700
C      1.837100   -2.748800   -0.202100
C      1.061600   -2.676600    2.211300
O      0.907900   -4.088700    2.206300
H     -0.313000    1.767900   -0.911200
H     -1.103400    1.845600    0.681800
H      0.674000    1.847300    0.569300
H     -0.932300   -0.548900   -0.117400
H     -0.194500   -2.493700    0.491800
H      1.597600   -2.467400   -1.232200
H      2.835100   -2.366800    0.031700
H      1.848600   -3.838000   -0.129500
H      2.070200   -2.371700    2.520200
H      0.345500   -2.204500    2.902600
H      1.203700   -4.424200    3.057100
