20
gdb_9147
C      0.130000    1.483400   -0.260100
C     -0.020400    0.060700    0.308500
C     -1.387800   -0.444200    0.242300
C     -2.526500   -0.832100    0.187600
C     -3.895600   -1.338600    0.096700
C     -3.912200   -2.845400   -0.210600
O     -4.560400   -1.039600    1.322900
C     -5.965700   -1.024800    1.226500
H      1.169200    1.817400   -0.183700
H     -0.165700    1.514700   -1.312300
H     -0.500700    2.188400    0.288000
H      0.646500   -0.623700   -0.231800
H      0.317300    0.045200    1.352800
H     -4.411000   -0.807200   -0.722500
H     -4.937500   -3.212300   -0.311600
H     -3.383600   -3.045500   -1.146600
H     -3.417700   -3.392500    0.595800
H     -6.346800   -0.699200    2.197600
H     -6.313900   -0.318800    0.455700
H     -6.390700   -2.014400    1.002200
