17
gdb_3290
C      0.208800    1.522900   -0.147000
C      0.046800    0.035600    0.087600
O      0.835000   -0.775900   -0.827100
C      1.337100   -1.591700    0.251300
C      2.742300   -1.156200    0.721000
C      2.079600   -0.195400    1.759700
C      0.669000   -0.672500    1.312600
H      1.253500    1.834300   -0.065300
H     -0.141200    1.780600   -1.151700
H     -0.386000    2.091600    0.576200
H     -1.015800   -0.233800   -0.011400
H      1.127400   -2.654900    0.103000
H      3.324100   -1.960000    1.180900
H      3.338600   -0.690400   -0.066500
H      2.303800   -0.461800    2.795000
H      2.288100    0.870000    1.637600
H     -0.016900   -1.011900    2.088100
