20
gdb_11789
C      0.053100    1.545100    0.054700
C     -0.076200    0.022500   -0.069500
C      0.728100   -0.552300   -1.206500
C      2.276400   -0.467900   -1.349300
C      1.989100   -1.526800   -2.457700
C      0.872400   -2.068700   -1.513100
C      1.140100   -0.683700   -3.415900
O      0.269500   -0.022500   -2.473700
H      1.088100    1.839300    0.259100
H     -0.257200    2.032900   -0.872600
H     -0.568700    1.925100    0.870600
H      0.244200   -0.463200    0.859900
H     -1.127500   -0.251100   -0.222500
H      2.702500    0.493300   -1.647800
H      2.811200   -0.884500   -0.493700
H      2.763300   -2.161300   -2.887000
H      1.268500   -2.643100   -0.673500
H      0.009900   -2.570400   -1.960000
H      1.721200    0.056600   -3.979400
H      0.549500   -1.282700   -4.119700
