15
gdb_10386
O     -0.075400   -0.079400    0.228500
C     -0.001100    1.072400   -0.115400
C      1.290700    1.871400   -0.041500
C      1.317700    2.786200    1.238400
C      2.318900    1.751700    1.807200
N      2.454300    1.130800    0.461000
C      1.516200    2.609900   -1.350900
O      0.706600    3.357800   -1.837000
H     -0.870900    1.636000   -0.509000
H      1.738900    3.773100    1.041700
H      0.367500    2.901700    1.761600
H      3.257600    2.150300    2.202700
H      1.867300    1.094800    2.558400
H      2.292000    0.126900    0.458800
H      2.508700    2.407900   -1.808800
