14
gdb_2667
C     -0.124400    1.449600    0.072800
O      0.032100    0.041000   -0.069600
C     -1.090400   -0.685700    0.051600
N     -1.063300   -1.936400   -0.094700
C     -2.309500   -2.652000    0.049600
C     -2.581300   -3.511200   -1.179800
O     -3.679500   -3.861800   -1.522500
H      0.876000    1.876900    0.000600
H     -0.751500    1.864600   -0.725000
H     -0.556300    1.708300    1.046900
H     -1.993600   -0.101200    0.288400
H     -2.224200   -3.354100    0.894400
H     -3.193300   -2.022600    0.240100
H     -1.662900   -3.804300   -1.733600
