15
gdb_20944
C     -0.012500    1.480300    0.113300
C     -0.045400   -0.017300   -0.170300
N     -1.393000   -0.542400    0.028700
C     -1.613200   -1.889900    0.025000
N     -2.815800   -2.445600   -0.141100
N     -2.501300   -3.736900   -0.004100
N     -1.229500   -3.984000    0.218700
N     -0.633900   -2.815000    0.239400
H      0.998700    1.871100   -0.028500
H     -0.676800    2.028600   -0.565100
H     -0.327000    1.690200    1.139600
H      0.320500   -0.219600   -1.189000
H      0.620400   -0.552100    0.511700
H     -2.138900   -0.008900   -0.393400
H     -3.188300   -4.471700   -0.070600
