15
gdb_4974
C     -0.048700    1.516600   -0.031400
C     -0.014500    0.013600   -0.013500
N     -0.009200   -0.634200   -1.170500
C      0.007200   -1.974700   -1.140100
C      0.022700   -2.665300    0.060100
N      0.027300   -2.038800    1.240600
C      0.004200   -0.707000    1.211200
N     -0.053700   -0.054300    2.426200
H      0.854600    1.950100    0.419800
H     -0.114100    1.864900   -1.062900
H     -0.907100    1.902400    0.531800
H      0.008400   -2.492900   -2.094000
H      0.036500   -3.752000    0.084000
H      0.176500   -0.643300    3.213300
H      0.333500    0.874500    2.472400
