20
gdb_11059
C     -0.039400    1.488200   -0.003600
C      0.009700   -0.029300    0.009200
C      0.737500   -0.682700   -1.198500
C      0.967300   -2.154200   -0.728100
C      0.350800   -2.130000    0.684000
C      0.720200   -0.731600    1.192300
O     -1.077200   -2.057800    0.546800
C     -1.367200   -0.716900    0.118800
H      0.968600    1.915000   -0.041100
H     -0.586800    1.860900   -0.877200
H     -0.537100    1.878800    0.890800
H      0.141300   -0.616800   -2.113800
H      1.685900   -0.170200   -1.390400
H      0.457100   -2.889700   -1.353800
H      2.030300   -2.413900   -0.698700
H      0.586100   -2.985900    1.317900
H      1.797300   -0.542600    1.221800
H      0.279300   -0.503700    2.166800
H     -2.012400   -0.227100    0.862100
H     -1.902700   -0.736500   -0.839700
