15
gdb_21163
C      0.137200    1.173900    0.466600
N     -0.025100    0.026400   -0.436600
C     -1.217600   -0.702900   -0.251600
C     -1.290300   -2.044000    0.074900
N     -0.289800   -2.995700    0.211000
N     -2.617300   -2.287600    0.146400
N     -3.343700   -1.158600   -0.111000
N     -2.489400   -0.215300   -0.356400
H      1.080600    1.677700    0.236100
H     -0.681700    1.902700    0.399700
H      0.187100    0.813600    1.498700
H      0.051400    0.341100   -1.398500
H      0.613200   -2.535600    0.160300
H     -0.350800   -3.547000    1.058800
H     -3.096500   -3.155400    0.321800
