14
gdb_4889
C      0.116700    1.289100    0.199800
O     -0.239300    0.250400   -0.719300
C     -1.294600   -0.500600   -0.347800
C     -1.345000   -1.754200    0.142800
N     -2.700700   -2.066000    0.312100
C     -3.520400   -1.024600   -0.094700
O     -4.733700   -0.980600   -0.124800
N     -2.609200   -0.034100   -0.465000
H      0.980000    1.798900   -0.230700
H     -0.702300    2.006500    0.329900
H      0.381400    0.866800    1.176000
H     -0.550500   -2.432500    0.396400
H     -3.078000   -2.953700    0.591300
H     -2.896200    0.801900   -0.943500
