17
gdb_18279
O      0.118700    1.327700   -0.169600
C      0.079900   -0.075500    0.007700
C     -1.354800   -0.580300    0.116200
O     -2.032800   -0.149800   -1.073700
C     -3.017800   -1.103000   -1.461100
C     -2.581600   -2.414500   -0.843200
N     -1.168300   -2.727700   -1.130900
C     -1.535700   -2.084800    0.150400
H     -0.457400    1.511400   -0.920900
H      0.572300   -0.608700   -0.817400
H      0.622000   -0.293800    0.934500
H     -1.835400   -0.136100    1.003300
H     -4.014100   -0.825600   -1.081600
H     -3.049800   -1.121500   -2.555300
H     -3.299500   -3.213800   -0.693900
H     -1.006400   -3.718800   -0.969300
H     -1.425100   -2.624600    1.084500
