14
gdb_15306
O     -0.497800    0.249000    0.050600
C      0.015100    1.335400    0.112100
C      1.433400    1.642700   -0.334200
C      1.456500    2.786200   -1.326700
N      1.237200    4.129600   -0.787300
C      2.556600    3.805000   -1.362300
C      3.667600    3.747900   -0.442900
N      4.570000    3.681500    0.276500
H     -0.533700    2.216000    0.513000
H      2.010200    1.930500    0.553800
H      1.876900    0.739900   -0.762700
H      1.023500    2.559400   -2.299600
H      0.716100    4.714700   -1.434700
H      2.813800    4.215600   -2.334800
