20
gdb_10063
C     -1.511200   -0.231100    0.014400
C      0.010000   -0.094000    0.087800
C      0.736400   -0.624800   -1.169500
C      2.236600   -0.287400   -1.137500
O      2.364000    1.126500   -1.137400
C      0.555200   -2.065100   -1.347000
C      0.426100   -3.256400   -1.472400
C      0.261400   -4.694400   -1.635800
H     -1.918500    0.335700   -0.830600
H     -1.807500   -1.276900   -0.111800
H     -1.983400    0.147800    0.926000
H      0.291900    0.955700    0.210500
H      0.392000   -0.634400    0.962900
H      0.320300   -0.104300   -2.044500
H      2.688800   -0.735300   -0.239000
H      2.726000   -0.733500   -2.015400
H      3.296000    1.345100   -1.051400
H      1.166900   -5.155000   -2.046400
H      0.047300   -5.183800   -0.679200
H     -0.564500   -4.926200   -2.317600
