20
gdb_19212
C      0.034100    1.513400   -0.331500
C      1.467500    1.612500    0.313000
C      1.408300    0.092900    0.634600
C      0.847000   -0.390400    2.000900
C     -0.586500   -0.489500    1.356300
C      0.007500   -0.003900    0.004700
C      0.525800   -1.038500   -1.032900
C      1.959400   -0.939400   -0.388300
H     -0.736300    2.107400    0.169400
H     -0.006100    1.746900   -1.399800
H      2.263100    1.903800   -0.379400
H      1.532400    2.264300    1.189500
H      1.257600   -1.340800    2.355000
H      0.934700    0.335400    2.815000
H     -1.011200   -1.497700    1.334700
H     -1.333900    0.178600    1.794900
H      0.060300   -2.026600   -0.967100
H      0.467700   -0.710500   -2.075200
H      2.736600   -0.553600   -1.054900
H      2.329300   -1.869700    0.053200
