24
gdb_7490
C      0.136900    1.625800   -0.117000
C      0.078900    0.101000    0.017100
C     -1.337900   -0.457600   -0.172300
C     -1.488600   -1.964000    0.064000
C     -0.667300   -2.793600   -0.927800
C     -1.292700   -2.455200    1.538200
C     -2.595300   -3.289500    1.417200
C     -2.964300   -2.478200    0.147000
H      1.155900    2.001700    0.019400
H     -0.207500    1.949300   -1.105800
H     -0.501000    2.113800    0.628400
H      0.760100   -0.350100   -0.713900
H      0.455100   -0.192800    1.005900
H     -2.015200    0.069300    0.514400
H     -1.690000   -0.216400   -1.186300
H      0.406800   -2.612200   -0.817600
H     -0.833400   -3.866000   -0.779600
H     -0.945200   -2.555700   -1.961500
H     -0.368600   -2.995600    1.762600
H     -1.394400   -1.635800    2.256800
H     -2.398500   -4.342400    1.199000
H     -3.294000   -3.243400    2.255700
H     -3.665700   -1.666800    0.364500
H     -3.340400   -3.035700   -0.715900
