15
gdb_16884
O      0.080700    0.070100    0.350800
C      0.021600    1.226000    0.017300
N     -0.968700    2.087600    0.428500
C     -1.353500    3.313000   -0.260800
C     -0.120900    4.019500   -0.774900
C      1.102800    4.129200    0.116100
C      1.066900    3.144600   -1.019400
O      0.989700    1.756100   -0.778300
H     -1.687900    1.603500    0.943700
H     -2.026000    3.103800   -1.107100
H     -1.906700    3.943400    0.445200
H     -0.316500    4.819600   -1.481000
H      1.741700    4.999000    0.014200
H      1.024300    3.733100    1.122400
H      1.699500    3.309200   -1.882900
