18
gdb_11541
C      0.056400    1.411900    0.182400
C     -0.091700   -0.061000   -0.190800
C      0.720600   -0.440700   -1.412000
O      1.401100    0.308100   -2.064800
O      0.567900   -1.758800   -1.689200
C      1.285000   -2.249400   -2.807800
C      2.495000   -3.094200   -2.546300
C      1.198200   -3.724000   -3.020100
H      1.098600    1.657200    0.401600
H     -0.264200    2.057300   -0.639000
H     -0.547200    1.645900    1.063700
H      0.215300   -0.718300    0.631300
H     -1.137500   -0.321000   -0.394000
H      1.284000   -1.567200   -3.648400
H      3.330300   -3.019500   -3.233200
H      2.768500   -3.251500   -1.509300
H      0.629000   -4.290100   -2.291800
H      1.130500   -4.093100   -4.037100
