16
gdb_9809
C      0.079000    1.497100   -0.226200
C      0.082400   -0.013900   -0.111800
C      1.419400   -0.745200   -0.016300
C      0.551600   -0.655900    1.191800
C     -0.984200   -0.790100   -0.820500
O     -1.053600   -2.004600   -0.780400
C     -1.963000   -0.026300   -1.580100
C     -2.784900    0.582200   -2.215600
H      0.912300    1.919900    0.342400
H      0.183800    1.823000   -1.265800
H     -0.847000    1.929100    0.166000
H      1.476700   -1.703300   -0.519300
H      2.309700   -0.128700   -0.071700
H      0.828700    0.023800    1.990000
H      0.028100   -1.554100    1.497300
H     -3.516000    1.108700   -2.779800
