21
gdb_3991
C     -0.067800    1.552000   -0.038200
C      0.007000    0.023500    0.002900
C      0.726900   -0.509400    1.246200
C      0.790900   -2.047400    1.287000
C      1.521400   -2.580300    2.491500
C      2.998900   -2.332300    2.646800
N      0.816300   -3.226300    3.340700
O      1.588300   -3.657300    4.436400
H      0.933100    1.998000   -0.034900
H     -0.585000    1.902500   -0.936900
H     -0.606600    1.945600    0.830900
H     -1.007000   -0.395700   -0.034400
H      0.519000   -0.343600   -0.896800
H      1.742200   -0.092600    1.282700
H      0.216400   -0.151800    2.149800
H     -0.222200   -2.460600    1.287200
H      1.292400   -2.407700    0.377300
H      3.189200   -1.609600    3.448200
H      3.508600   -3.256000    2.934200
H      3.437200   -1.947100    1.723700
H      0.940500   -4.143200    4.957100
