17
gdb_7482
C     -0.036200    1.654400    0.203200
C     -0.010400    0.134500    0.058800
C      1.097500   -0.401900   -0.882500
O      1.864900   -0.888200    0.243600
C      0.789300   -0.610700    1.152700
N     -1.339800   -0.413300   -0.175800
C     -1.984400   -0.273900   -1.362000
O     -1.515000    0.275900   -2.338100
H      0.972500    2.036200    0.386900
H     -0.421400    2.107700   -0.713200
H     -0.675800    1.953200    1.040500
H      0.773700   -1.212100   -1.543400
H      1.642400    0.349500   -1.461500
H      1.110700   -0.009200    2.011300
H      0.306300   -1.529800    1.516900
H     -1.824500   -0.857400    0.588400
H     -2.993100   -0.732600   -1.349000
