17
gdb_6943
C     -0.035300    1.546800    0.011800
C     -0.011800    0.007300   -0.045600
C     -1.447100   -0.552800   -0.055200
C      0.843300   -0.531800   -1.173000
C      1.859100   -1.231100   -0.660300
N      1.808800   -1.242000    0.743500
C      0.723300   -0.527000    1.209300
O      0.418900   -0.359000    2.368800
H      0.977000    1.960800   -0.005500
H     -0.584600    1.953000   -0.843600
H     -0.525900    1.874500    0.933100
H     -2.005200   -0.159800   -0.910900
H     -1.447300   -1.644700   -0.120300
H     -1.962900   -0.262400    0.864900
H      0.649700   -0.368100   -2.222800
H      2.660100   -1.753800   -1.163600
H      2.463200   -1.701400    1.354500
