18
gdb_19474
O     -0.138400    1.469900   -0.177900
C      0.019100    0.081200    0.092900
C     -1.359200   -0.549100   -0.001200
C     -2.015800   -0.717200   -1.426000
C     -1.145500   -2.013100   -1.575300
C     -1.469100   -2.121400   -0.044400
C     -2.997400   -2.264800   -0.109200
C     -3.353300   -1.347400   -1.014000
H      0.721200    1.891800   -0.089300
H      0.732700   -0.376300   -0.606700
H      0.413000   -0.082100    1.110100
H     -2.009300   -0.066700    0.734100
H     -2.010800    0.085700   -2.161400
H     -1.540400   -2.801900   -2.219200
H     -0.093200   -1.827600   -1.804600
H     -0.909400   -2.767700    0.632700
H     -3.600800   -2.954700    0.463300
H     -4.331200   -1.076500   -1.385900
