18
gdb_12671
C      0.141200    1.592900   -0.001800
C     -0.011200    0.066100    0.013000
C      0.702900   -0.618900   -1.180900
N      1.993200   -0.961800   -0.600200
C      1.871700   -1.123900    0.779500
O      2.683200   -1.640100    1.519300
N      0.658300   -0.571500    1.139000
C      0.294400   -0.370100    2.519100
H      1.196800    1.873600   -0.069700
H     -0.388300    2.018200   -0.860500
H     -0.277800    2.043100    0.902900
H     -1.078000   -0.189000    0.018600
H      0.144500   -1.506300   -1.511500
H      0.807200    0.060000   -2.032400
H      2.595500   -1.625300   -1.061800
H      0.983900   -0.961000    3.124900
H      0.371400    0.681000    2.828600
H     -0.731600   -0.709200    2.705600
