20
gdb_7181
C     -0.020200    1.507800    0.071000
C      0.020300   -0.021000    0.006900
C      0.730700   -0.542800   -1.246400
C      0.783200   -2.065900   -1.345700
C      1.427600   -2.565400   -2.634400
O      1.556400   -2.552800   -0.223400
C      1.101100   -3.618300    0.455500
O      1.699400   -4.116800    1.361900
H      0.990600    1.929900    0.080200
H     -0.546700    1.929500   -0.792600
H     -0.532200    1.852900    0.974200
H      0.526900   -0.414600    0.894700
H     -1.004200   -0.416800    0.033700
H      0.225400   -0.165800   -2.144800
H      1.757900   -0.157900   -1.281200
H     -0.235900   -2.470500   -1.260100
H      2.456200   -2.201100   -2.712400
H      1.449400   -3.658700   -2.662600
H      0.866300   -2.210700   -3.504200
H      0.116400   -3.972900    0.090000
