18
gdb_17640
C     -0.658900    1.826800    0.311500
C     -0.140500    0.377700    0.194700
C      0.659600    0.001600    1.426000
C      1.904200   -0.771000    1.345000
O      1.928600    0.642600    1.563300
C     -1.332300   -0.569700    0.026300
C     -1.674200   -0.992100   -1.388700
O     -1.974600   -0.940000    0.983200
H      0.184600    2.506400    0.456800
H     -1.199500    2.134500   -0.588900
H     -1.336500    1.920200    1.165400
H      0.510900    0.309800   -0.684300
H      0.076000   -0.056400    2.343400
H      2.221200   -1.381000    2.189300
H      2.273300   -1.097800    0.373200
H     -0.868700   -1.620000   -1.788400
H     -2.610700   -1.550900   -1.399700
H     -1.747700   -0.119200   -2.046900
