16
gdb_20804
C      0.127100    1.585300   -0.132500
C      0.004100    0.055900   -0.000000
C      0.643100   -0.494500    1.233500
C      0.116100   -0.793900    2.477100
O     -1.200700   -0.638400    2.805100
C      1.199000   -1.254400    3.255000
N      2.333300   -1.247900    2.553700
N      1.972700   -0.782400    1.348500
H      1.175900    1.897200   -0.165800
H     -0.360000    1.936300   -1.047700
H     -0.342100    2.085400    0.719400
H     -1.054100   -0.223800    0.017000
H      0.436600   -0.425600   -0.886500
H     -1.342200   -0.991800    3.687800
H      1.197700   -1.590500    4.282400
H      2.672600   -0.700700    0.630700
