18
gdb_4830
C      0.002900    1.530500   -0.277600
C     -0.045900    0.044600    0.124000
C     -1.425900   -0.529700    0.176200
C     -2.189900   -0.960700    1.236600
C     -3.443200   -1.414700    0.728500
C     -3.416300   -1.239400   -0.636400
N     -4.364500   -1.451000   -1.663000
N     -2.193000   -0.701900   -0.959400
H      1.033500    1.899800   -0.291200
H     -0.419600    1.690300   -1.275600
H     -0.573000    2.140300    0.424700
H      0.582100   -0.534000   -0.568500
H      0.404700   -0.077800    1.114300
H     -1.873500   -0.964100    2.269300
H     -4.260500   -1.837700    1.293100
H     -5.302000   -1.461800   -1.279700
H     -4.223700   -2.339100   -2.137800
H     -1.947300   -0.408800   -1.889600
