17
gdb_9376
C     -0.164500    1.459700    0.533500
C      0.094600    0.191000   -0.281000
O      0.207900    0.551600   -1.641600
C     -0.247800   -0.396800   -2.603400
C      0.690200   -1.575200   -2.851200
O      0.647000   -2.529700   -1.802900
C      1.334000   -0.478200    0.183700
N      2.310500   -1.000800    0.517100
H      0.638300    2.181600    0.366700
H     -1.109500    1.901900    0.210700
H     -0.219100    1.230600    1.600900
H     -0.726300   -0.525600   -0.138300
H     -1.236900   -0.782600   -2.314200
H     -0.358200    0.177700   -3.529300
H      0.358400   -2.075300   -3.771400
H      1.707600   -1.202200   -3.025200
H      1.410600   -2.399900   -1.231400
