15
gdb_21174
C     -0.060000    1.451100   -0.119500
N      0.146700    0.021000    0.062100
C      0.646600   -0.745500   -0.952400
C      0.688800   -2.099300   -1.154600
C      1.420300   -2.216100   -2.368800
N      1.815800   -3.394300   -2.984800
N      1.773600   -1.052000   -2.873200
O      1.272600   -0.098000   -1.941400
H      0.872000    1.914000   -0.448600
H     -0.838200    1.686500   -0.858700
H     -0.341400    1.885900    0.841800
H     -0.533700   -0.451300    0.635500
H      0.300400   -2.882700   -0.526300
H      1.122100   -4.127600   -2.946000
H      2.139200   -3.242700   -3.931500
