15
gdb_21254
C      0.160700    0.680700    0.655200
O      0.070200    0.799400   -0.757700
C      0.586000   -0.228200   -1.452600
C      1.194300   -1.416200   -1.095100
C      1.492500   -2.024400   -2.345800
N      2.183400   -3.221800   -2.542600
N      1.100100   -1.291400   -3.378300
N      0.551600   -0.176400   -2.799600
H     -0.382800   -0.203200    1.010000
H      1.206800    0.613600    0.977000
H     -0.293800    1.581300    1.069500
H      1.414000   -1.779500   -0.106300
H      1.892500   -3.956200   -1.910900
H      2.101900   -3.533400   -3.502700
H      0.165700    0.553900   -3.370500
