11
gdb_21742
O     -0.049700    1.320600    0.009700
C      1.252800    1.780700   -0.000200
C      2.137900    0.764700   -0.014400
N      1.364700   -0.400100   -0.013400
C      1.299300   -1.773200   -0.020200
N      0.040000   -2.147400   -0.010200
N     -0.781300   -1.025800    0.003800
C      0.050100   -0.025900    0.001300
H      1.378300    2.849300    0.004500
H      3.213200    0.773800   -0.024700
H      2.156300   -2.425100   -0.032000
