13
gdb_16260
O     -0.021100    0.029200   -0.057200
C     -0.013500    1.215900    0.052600
C     -1.126900    2.289200    0.159500
C     -0.041700    3.359900   -0.023000
C      0.948200    3.263900    1.072700
C      1.076200    2.264800   -0.088000
C      2.253100    2.181300   -0.884100
N      3.201600    2.103900   -1.542800
H     -1.807500    2.191200   -0.690600
H     -1.707900    2.331800    1.084600
H     -0.105700    4.211800   -0.685500
H      1.741300    4.003400    1.087800
H      0.656800    2.890800    2.050200
