9
gdb_8975
O     -0.403400    0.435400    0.856200
C     -0.003900    1.149000   -0.029100
C      1.228000    1.909400    0.060700
C      2.252200    2.550200    0.119400
C      3.462600    3.325800    0.201900
O      3.514300    4.459900    0.611900
C      4.663100    2.616100   -0.267200
N      5.608100    2.063200   -0.638600
H     -0.547100    1.280800   -0.984300
