18
gdb_14481
O     -0.092800    1.354300    0.004000
C     -0.005600   -0.044300    0.003400
C      0.702100   -0.733600    1.202000
C      0.446700   -2.167700    0.760400
C     -0.875900   -2.167700    0.010900
C     -1.386800   -0.733000    0.015100
C      0.434000   -2.167800   -0.760800
C      0.681800   -0.733800   -1.206800
H      0.801800    1.710000   -0.002700
H      1.768000   -0.481100    1.256600
H      0.230200   -0.475400    2.155400
H      0.782900   -3.026500    1.326600
H     -1.535300   -3.025400    0.016500
H     -1.962600   -0.475600    0.909700
H     -1.977600   -0.475700   -0.869700
H      0.760600   -3.026600   -1.332500
H      0.194000   -0.475600   -2.152100
H      1.746700   -0.481200   -1.279400
