16
gdb_8347
N     -0.126700    1.280300    0.008300
C     -0.051200    0.021700   -0.010900
O     -1.181200   -0.719900    0.023400
C     -1.027100   -2.111000   -0.003600
C     -0.336500   -3.063300    1.001100
N     -0.952900   -4.016100   -0.034600
C     -2.192000   -3.098800    0.036400
C     -0.434200   -3.033000   -1.095300
H      0.807100    1.684800   -0.022200
H      0.866900   -0.577600   -0.053800
H      0.755300   -3.099100    1.025900
H     -0.770900   -3.160500    1.998400
H     -2.753400   -3.195700    0.967900
H     -2.837600   -3.169500   -0.841300
H     -0.959600   -3.101900   -2.050200
H      0.650400   -3.066200   -1.222500
