17
gdb_7424
C     -0.074500    1.501200   -0.126700
C     -0.011400   -0.034000    0.054300
C      0.738400   -0.434000    1.325800
C     -1.424000   -0.579500    0.051200
O     -2.020600   -0.942400    1.041300
C     -2.127200   -0.653700   -1.331200
N     -3.399500   -1.094200   -1.228600
O     -1.559200   -0.345900   -2.362900
H      0.940600    1.907200   -0.160500
H     -0.580600    1.767000   -1.056900
H     -0.599200    1.971500    0.711700
H      0.482800   -0.439900   -0.835400
H      0.228700   -0.051700    2.214500
H      0.803600   -1.521300    1.425900
H      1.754800   -0.030000    1.308500
H     -3.753200   -1.341800   -0.318500
H     -3.961700   -1.208200   -2.054500
