17
gdb_18759
O      0.349500    1.054900   -0.827800
C      0.059200   -0.139000   -0.157100
C      0.166500   -0.201500    1.395700
N     -1.210900   -0.786900    1.513300
C     -2.244900    0.260700    1.788200
C     -2.504300    0.487300    0.283800
O     -2.240500    1.827700   -0.120600
C     -1.417900   -0.593800    0.015700
H     -0.290100    1.708200   -0.511500
H      0.657600   -0.916300   -0.640300
H      0.940100   -0.864300    1.794200
H      0.272600    0.783200    1.866100
H     -3.098800   -0.137200    2.344000
H     -1.867000    1.148000    2.306800
H     -3.504400    0.187100   -0.050000
H     -2.480100    1.914200   -1.050000
H     -1.744400   -1.459800   -0.567500
