13
gdb_3279
O      0.043700    0.067500   -0.606100
C      0.016200    1.177400   -0.167700
C     -1.116000    2.126500    0.293300
C     -0.051000    3.222500    0.572300
C      0.604300    3.123300    1.957500
O      1.546300    2.120900    1.497500
C      1.093300    2.250500    0.130800
H     -1.791300    2.363600   -0.535300
H     -1.717800    1.787400    1.141500
H     -0.214500    4.206100    0.138700
H      1.129500    4.029300    2.283200
H     -0.027000    2.757200    2.775700
H      1.901600    2.441500   -0.579900
