18
gdb_4840
C     -0.772400    0.874900    0.140200
N      0.485700    0.167800   -0.134000
C      1.062200   -0.492200    0.969200
C      2.017200   -0.129600    1.892500
C      2.214700   -1.245400    2.758400
C      1.370900   -2.255300    2.355500
C      1.151500   -3.628300    2.898300
N      0.676200   -1.781700    1.263300
H     -0.682100    1.654200    0.912500
H     -1.135200    1.333800   -0.784500
H     -1.526200    0.157200    0.476700
H      1.159300    0.806400   -0.538300
H      2.510300    0.829600    1.944700
H      2.894400   -1.300200    3.596000
H      0.118800   -3.782900    3.236900
H      1.370800   -4.410600    2.159900
H      1.807200   -3.795100    3.756200
H      0.045400   -2.314300    0.688600
