19
gdb_8211
C     -0.106000    1.519100    0.011600
C      0.102300    0.029000    0.006200
C      0.452600   -0.665400   -1.299300
O      0.947700   -1.950400   -0.949800
C      1.464100   -1.912900    0.373300
C      0.751500   -0.771600    1.079700
C      1.318500   -0.237700    2.367000
N     -0.714300   -0.864300    0.865400
H      0.735100    2.038000   -0.461200
H     -1.013600    1.787600   -0.541400
H     -0.212900    1.908400    1.028700
H     -0.410500   -0.810600   -1.958000
H      1.211300   -0.073300   -1.839400
H      1.275800   -2.890300    0.830500
H      2.551800   -1.726600    0.377300
H      2.380600    0.008700    2.259600
H      0.794800    0.665500    2.695100
H      1.230300   -0.979700    3.169000
H     -1.176400   -0.292000    1.571700
