13
gdb_16270
N      0.161700    1.238300   -0.044800
C      0.025500   -0.000900    0.052200
O      0.982500   -1.022900    0.089200
C     -0.057400   -2.019400    0.002100
C     -0.928200   -1.973900    1.181700
C     -1.145000   -0.926700    0.069600
C     -2.411800   -0.825200   -0.677000
O     -3.255600   -1.690900   -0.682400
H      1.145100    1.510700   -0.079100
H      0.063100   -2.814800   -0.720200
H     -1.737900   -2.696700    1.208200
H     -0.528000   -1.649200    2.136200
H     -2.529400    0.113600   -1.255200
