18
gdb_6788
N     -0.049200    1.332600    0.026600
C     -0.004900   -0.046300   -0.172100
O      0.925400   -0.596500   -0.731700
N     -1.093900   -0.712600    0.342600
C     -1.140600   -2.164400    0.378000
C     -2.512100   -2.701400   -0.035400
C     -2.574200   -4.222800   -0.003600
O     -3.895000   -4.610000   -0.350100
H      0.627300    1.814800   -0.546400
H     -0.959500    1.769400    0.024800
H     -1.676600   -0.217600    0.999100
H     -0.358900   -2.506300   -0.304400
H     -0.877700   -2.537000    1.379700
H     -3.291000   -2.312200    0.633100
H     -2.756200   -2.351000   -1.043900
H     -1.836500   -4.639300   -0.708500
H     -2.303000   -4.586900    1.001600
H     -3.934000   -5.570700   -0.357900
