20
gdb_17282
O     -0.135900    1.444500    0.130000
C     -0.074900    0.045700    0.149900
C     -0.772000   -0.714100    1.251800
C     -1.345800   -0.693200   -0.153400
C     -2.630100    0.053400   -0.460300
C     -3.876500   -0.765600   -0.188000
C     -4.522300   -0.763700    1.174700
C     -5.207300   -0.087100    0.011300
H      0.412100    1.773800    0.849600
H      0.853300   -0.370100   -0.242900
H     -0.323200   -1.625100    1.633100
H     -1.287200   -0.115800    1.996400
H     -1.217500   -1.609700   -0.724800
H     -2.658800    0.980900    0.120900
H     -2.619700    0.359600   -1.515400
H     -3.910300   -1.714500   -0.719300
H     -4.942200   -1.688800    1.554300
H     -4.087400   -0.129900    1.940500
H     -5.227600    0.998100   -0.001900
H     -6.094500   -0.550400   -0.406400
