13
gdb_4284
O      0.076100    1.353800    0.185400
C     -0.003400    0.005500    0.067800
C     -1.157300   -0.678500    0.056400
C     -1.145600   -2.138200   -0.005000
N     -2.238500   -2.805000   -0.022900
N      0.126200   -2.774900   -0.055400
C      1.180900   -2.055500   -0.040300
N      1.206700   -0.676200   -0.016300
H      0.742100    1.698700   -0.422100
H     -2.103100   -0.156200    0.077400
H     -2.009600   -3.799400   -0.079000
H      2.164200   -2.522900   -0.058500
H      2.055900   -0.202100    0.250200
