12
gdb_18422
O      0.012800    0.054000    0.104500
C      0.027400    1.243700    0.033700
N     -1.003600    2.211300    0.050200
C     -0.054800    3.314600   -0.041300
C      0.961800    3.294800    1.079300
C      0.617200    2.853200    2.405400
N      0.315300    2.516200    3.469500
C      1.092800    2.334400   -0.118300
H     -1.775900    2.184600    0.707000
H     -0.255900    4.187600   -0.647000
H      1.688400    4.103200    1.056500
H      1.977400    2.331700   -0.738300
