11
gdb_21406
N     -0.071100    1.317500    0.008600
C     -0.014100    0.051500    0.001200
N     -1.186600   -0.703700    0.003500
C     -1.228200   -2.072500   -0.003900
O     -2.222900   -2.753200   -0.002000
N      0.063500   -2.609600   -0.014000
N      1.231000   -1.923100   -0.016800
N      1.217600   -0.668000   -0.009800
H      0.876200    1.694200    0.005400
H     -2.067800   -0.207800    0.011200
H      0.161000   -3.613700   -0.020100
