12
gdb_4319
N      0.013900    1.316700    0.007900
C     -0.010400   -0.029500    0.000900
N     -1.179600   -0.634600    0.004100
C     -1.211000   -1.999100   -0.003000
O     -2.191800   -2.706300   -0.001200
N      0.083500   -2.623100   -0.013400
C      1.218200   -1.906400   -0.015800
N      1.248100   -0.610800   -0.009100
H      0.895900    1.796000    0.005600
H     -0.853700    1.822900    0.015400
H      0.090000   -3.632700   -0.018700
H      2.153200   -2.463500   -0.023900
