13
gdb_6640
C     -0.107500    1.537900    0.012200
C      0.113500    0.038700    0.001400
O      1.202500   -0.469800   -0.011900
C     -1.186000   -0.803200    0.008800
C     -0.965500   -2.234200   -0.000900
C     -0.784400   -3.427300   -0.009000
C     -0.585500   -4.778000   -0.018100
N     -0.422700   -5.928100   -0.025800
H      0.855400    2.048800    0.005800
H     -0.694000    1.844900   -0.861000
H     -0.676900    1.834700    0.900100
H     -1.776200   -0.514900    0.889600
H     -1.792100   -0.505500   -0.857800
