16
gdb_14432
O     -0.087300    1.320600   -0.111400
C      0.012900   -0.059800   -0.062200
C      0.575100   -0.907800   -1.274000
C     -0.225900   -2.006900   -0.571000
C      0.431900   -2.762700    0.331100
C      0.245200   -2.181100    1.730400
C     -0.289700   -0.792900    1.332400
C     -1.142500   -0.979000    0.123800
H      0.757600    1.693200    0.163600
H      0.150800   -0.486900   -2.193000
H      1.651800   -1.068400   -1.386800
H      1.338500   -3.307800    0.082800
H     -0.455100   -2.692900    2.407300
H      1.219200   -2.167400    2.235900
H     -0.585500   -0.071800    2.091900
H     -2.203500   -0.821500   -0.019600
