18
gdb_16695
C     -0.137200    1.510300   -0.002900
C     -0.013500   -0.004600   -0.009800
C      1.274600   -0.605800   -0.676200
O      2.009900   -0.228900    0.539200
C      0.766700   -0.649200    1.189600
C      0.708700   -2.150400    0.831500
C      0.338100   -3.262400    1.747600
C      1.062000   -2.109900   -0.458200
H      0.812400    1.974800    0.272400
H     -0.432700    1.880600   -0.990900
H     -0.903600    1.835000    0.709800
H     -0.954400   -0.492300   -0.280400
H      1.709700   -0.233600   -1.603500
H      0.663300   -0.327800    2.227000
H     -0.670300   -3.123900    2.158600
H      0.362900   -4.228300    1.235500
H      1.019400   -3.315100    2.606400
H      1.168000   -2.902600   -1.184500
