17
gdb_17770
N     -0.069000    1.291900    0.104500
C     -0.048600    0.030000    0.127100
O     -1.144100   -0.670100   -0.222800
C     -1.078900   -2.077500   -0.076600
C     -1.726700   -2.733100    1.177600
C     -3.109400   -2.312000    0.590200
C     -2.293000   -2.856900   -0.624100
C     -1.832500   -4.017600    0.306700
H      0.842000    1.656400    0.375500
H      0.806300   -0.603500    0.403000
H     -0.086900   -2.444300   -0.365400
H     -1.388300   -2.659100    2.211600
H     -3.964400   -2.916500    0.902300
H     -3.340300   -1.247700    0.587500
H     -2.607700   -2.924400   -1.665400
H     -0.899800   -4.527500    0.047300
H     -2.608800   -4.726700    0.599000
