20
gdb_6480
C     -0.006100    1.320100    0.119300
O     -0.051000   -0.078200   -0.088200
C      0.670800   -0.571800   -1.227800
C      0.188200    0.036900   -2.534000
C      2.203300   -0.612300   -0.924500
C      1.994200   -2.022100   -0.295400
O      1.843500   -2.013300    1.106100
C      0.653200   -2.116200   -1.078600
H      1.021800    1.709300    0.120300
H     -0.585300    1.868500   -0.634800
H     -0.450500    1.506800    1.100100
H      0.423900    1.103600   -2.605100
H      0.670700   -0.462100   -3.379300
H     -0.895500   -0.083800   -2.636500
H      2.798900   -0.648000   -1.841600
H      2.610300    0.155300   -0.261800
H      2.752400   -2.776100   -0.518200
H      1.129500   -1.390600    1.295800
H     -0.200300   -2.534800   -0.540500
H      0.766200   -2.617800   -2.043400
