16
gdb_3224
C      0.050400    1.505800    0.031000
C     -0.000600    0.011100    0.042300
C     -0.939900   -0.814100    0.876400
C      0.549600   -1.029300    0.994300
C      1.136900   -1.736500   -0.238200
C      0.165300   -2.072800   -1.297500
N      0.625400   -0.673800   -1.174500
H      1.052500    1.857500   -0.233800
H     -0.650700    1.911400   -0.708300
H     -0.215600    1.913700    1.011000
H     -1.358800   -0.254700    1.708100
H     -1.620400   -1.564300    0.488400
H      1.092200   -0.901300    1.922000
H      2.175800   -2.048500   -0.282500
H      0.563000   -2.543700   -2.192500
H     -0.859500   -2.349100   -1.079100
