16
gdb_19960
O      0.110700    0.002100   -0.370600
C      0.045600    1.190100   -0.182500
N     -1.002600    2.053500    0.007700
C     -0.191200    3.245600    0.274100
C      1.064900    2.371000   -0.026100
N      2.091200    2.347500    0.988900
C      1.909300    1.470800    2.147400
C      2.901500    1.132100    1.090000
H     -1.998700    1.895100    0.044000
H     -0.370100    4.079100   -0.411000
H     -0.235100    3.595500    1.309700
H      1.530000    2.619300   -0.984900
H      2.235200    1.889100    3.095100
H      1.018700    0.849100    2.200700
H      2.649300    0.300200    0.438200
H      3.962200    1.296300    1.257500
