17
gdb_21067
C     -0.015100    1.422800   -0.023300
N     -0.027600   -0.019900    0.017000
N     -0.063200   -0.741000   -1.132100
C     -0.056100   -2.005400   -0.725900
C      0.008600   -2.130500    0.679500
C      0.040300   -3.372400    1.515300
C      0.032500   -0.814500    1.118800
N      0.030600   -0.261700    2.407300
H      1.004100    1.827200    0.023600
H     -0.471500    1.735100   -0.962600
H     -0.591700    1.814900    0.818700
H     -0.090000   -2.800700   -1.458000
H      0.664800   -3.243700    2.408400
H     -0.955400   -3.680600    1.859800
H      0.458100   -4.211800    0.951400
H     -0.013700   -0.984200    3.114400
H      0.836700    0.325400    2.594200
