14
gdb_4680
C      0.004700    1.495100    0.101400
C     -0.002100    0.011200   -0.035300
C     -0.056200   -0.819000   -1.133100
N     -0.037500   -2.136500   -0.767100
C      0.028100   -2.133100    0.554100
N      0.051400   -0.845400    1.037200
C      0.071100   -3.253700    1.413300
C      0.109100   -4.188000    2.171900
H      0.917200    1.860700    0.587800
H     -0.050700    1.956300   -0.887200
H     -0.848300    1.859600    0.686500
H     -0.108000   -0.525600   -2.171400
H      0.099400   -0.587700    2.009500
H      0.141900   -5.023300    2.826900
