20
gdb_16177
C     -0.386000    1.326300   -0.162600
O      0.057800    0.001200    0.057100
C      0.798800   -0.526500   -0.997000
C      0.068700   -1.044200   -2.214200
C      0.747900   -2.007300   -1.252900
C      2.151100   -2.484100   -1.593800
C      2.918500   -1.194700   -1.977800
C      2.239900   -0.060400   -1.177200
H      0.450800    2.035300   -0.238400
H     -0.990000    1.403700   -1.078200
H     -1.002300    1.603300    0.696200
H     -1.014300   -1.015900   -2.162200
H      0.474800   -0.889400   -3.209300
H      0.104500   -2.632500   -0.644500
H      2.598200   -2.946900   -0.705700
H      2.175500   -3.231800   -2.394000
H      3.988900   -1.268300   -1.769200
H      2.822600   -1.004700   -3.051500
H      2.335000    0.910400   -1.675200
H      2.683600    0.036600   -0.178800
