15
gdb_11255
C      0.164600    1.617000   -0.052700
C     -0.056900    0.118000    0.125200
O      0.431600   -0.574000   -1.040800
C      1.257600   -1.661700   -0.660600
C      1.452900   -1.509600    0.833800
C      0.698000   -0.509400    1.266300
C      0.623700   -2.957800   -1.002400
N      0.144000   -3.976300   -1.261900
H      1.232300    1.842100   -0.126200
H     -0.329900    1.962500   -0.964300
H     -0.254800    2.167300    0.795600
H     -1.136900   -0.076600    0.225200
H      2.203300   -1.607200   -1.218800
H      2.096900   -2.161400    1.407600
H      0.605600   -0.165700    2.288700
