15
gdb_19891
N     -0.285100   -1.217900   -0.209100
C     -0.085600   -0.087600   -0.059400
C      0.077900    1.338500    0.070400
C      0.502300    2.155200    1.278100
C      1.718800    1.633900    2.090400
C      2.341200    0.366900    1.573300
C      2.566100    1.651800    0.826000
C      1.345400    2.173000    0.020000
H     -0.724600    1.849000   -0.460100
H     -0.162200    2.921000    1.657400
H      1.956300    2.041700    3.063700
H      3.207200    0.052300    2.149100
H      1.767000   -0.458500    1.176800
H      3.551100    2.075500    0.683700
H      1.433400    2.954800   -0.723700
