19
gdb_8538
C     -0.705800    1.425800   -0.417500
N     -0.463300    0.023200   -0.103800
C     -1.221500   -0.600700    1.021500
C     -0.112200   -1.677400    1.211600
C     -0.051700   -1.475600    2.730600
C     -0.311700   -0.045400    2.201500
C     -0.452900    1.176000    3.074900
C      0.578600   -0.313900    0.911700
H      0.093700    1.784200   -1.075300
H     -1.647300    1.506400   -0.971800
H     -0.762800    2.104700    0.445900
H     -2.304500   -0.744600    1.009000
H     -0.005200   -2.579100    0.610700
H     -0.854700   -1.929700    3.320800
H      0.916400   -1.647600    3.212800
H      0.455800    1.323200    3.670600
H     -0.633500    2.093800    2.511600
H     -1.284800    1.046000    3.777200
H      1.643400   -0.115700    0.768200
