17
gdb_15558
C      0.072900    1.571900   -0.000500
C      0.005800    0.043000    0.009300
C      0.735800   -0.596600   -1.211400
C      1.971700   -1.216400   -0.599100
C      1.904400   -1.161500    0.730700
N      0.737000   -0.520000    1.168900
C      0.337400   -0.447400    2.469800
O      0.954200   -0.898000    3.413500
H      1.113700    1.907200   -0.048600
H     -0.458900    1.967400   -0.871900
H     -0.383200    1.997300    0.898400
H     -1.039200   -0.278100    0.057100
H      0.113100   -1.349800   -1.710600
H      0.968500    0.164600   -1.965000
H      2.775000   -1.661600   -1.167500
H      2.584700   -1.529900    1.483600
H     -0.634000    0.074400    2.573600
