14
gdb_10369
C     -0.011200   -1.239900   -0.036800
C     -0.022800   -0.039500   -0.026600
C     -0.026100    1.414300   -0.001300
C     -0.162000    2.032800    1.442700
N      1.302900    2.198500    1.485800
C      1.411600    2.061200    0.021400
C     -0.939000    1.963200   -1.001000
N     -1.652300    2.428600   -1.782000
H     -0.004000   -2.302100   -0.049800
H     -0.741700    2.964000    1.416000
H     -0.573700    1.361600    2.200100
H      1.627200    3.081200    1.862500
H      2.220000    1.412000   -0.323200
H      1.425300    3.003000   -0.541300
