15
gdb_1170
C     -0.037300    1.547900    0.007800
C     -0.041700    0.011600   -0.004400
N      0.553300   -0.483200    1.249300
C     -1.497100   -0.534600   -0.038300
O     -2.201600   -0.126700    1.105200
C      0.681900   -0.485700   -1.193900
N      1.251900   -0.908400   -2.107200
H      0.980600    1.935300    0.109200
H     -0.459300    1.938900   -0.920700
H     -0.644100    1.894100    0.845900
H      0.764200   -1.474700    1.174400
H      1.430400   -0.008800    1.440300
H     -2.021900   -0.145300   -0.915200
H     -1.456000   -1.632300   -0.130500
H     -1.607500   -0.303400    1.849100
