19
gdb_1312
C     -0.081700    1.510600    0.047900
C     -0.018000   -0.019200    0.011600
C     -1.396300   -0.615000   -0.258100
C      1.159000   -0.530700   -0.883000
C      2.049600   -0.644400    0.384400
C      0.752700   -0.605600    1.233000
O      0.705800    0.186900    2.397800
H      0.900000    1.958300    0.225300
H     -0.460700    1.892300   -0.906800
H     -0.746700    1.855900    0.844800
H     -1.798600   -0.262800   -1.215100
H     -1.357900   -1.709200   -0.295500
H     -2.107800   -0.329800    0.525500
H      0.943400   -1.506500   -1.327900
H      1.500800    0.142800   -1.672800
H      2.696400   -1.520100    0.480500
H      2.645500    0.257000    0.550000
H      0.399100   -1.627200    1.441100
H      1.224100   -0.248500    3.081700
