12
gdb_70
C     -0.097800    1.449200    0.045600
N      0.010400    0.003700   -0.000700
C      0.053200   -0.714300    1.252600
C      0.067300   -0.640700   -1.200600
O      0.036400   -0.110100   -2.291100
H      0.756500    1.887500    0.576500
H     -0.116500    1.816300   -0.980500
H     -1.016400    1.755200    0.561500
H     -0.854500   -0.536600    1.843900
H      0.133000   -1.787000    1.058500
H      0.916400   -0.407400    1.857600
H      0.147600   -1.738000   -1.068100
