20
gdb_6853
C     -0.034000    1.538500   -0.010500
C     -0.018600    0.000400    0.009400
C     -1.462100   -0.542300    0.022100
C      0.730900   -0.518700   -1.232600
O      1.004200   -1.906300   -1.141500
C      1.922600   -2.205700   -0.108400
C      1.621700   -1.479800    1.173400
C      0.730000   -0.494100    1.230500
H      0.980800    1.949000    0.013200
H     -0.532100    1.913200   -0.911900
H     -0.576200    1.933500    0.855500
H     -2.045300   -0.115700   -0.802500
H     -1.458200   -1.630100   -0.083100
H     -1.970800   -0.290100    0.958600
H      0.127100   -0.385800   -2.136100
H      1.668700    0.047400   -1.362000
H      1.869700   -3.290700    0.042200
H      2.956500   -1.981400   -0.433200
H      2.171500   -1.798200    2.055600
H      0.511100   -0.001100    2.175900
