18
gdb_17681
C     -0.331500    1.458100    0.387300
C     -0.159700   -0.031500    0.539400
O      0.887300   -0.661600   -0.218400
C      0.973600   -0.689800    1.215200
C      2.137000    0.060400    1.826500
C      0.763500   -2.055200    1.813700
C     -0.145200   -2.274200    2.947800
O     -0.499400   -2.684700    1.626300
H      0.619900    1.991900    0.422600
H     -0.807400    1.680700   -0.573400
H     -0.982000    1.848300    1.177800
H     -1.088400   -0.601700    0.525900
H      2.335300    0.989400    1.291000
H      1.943200    0.292200    2.879200
H      3.046100   -0.549700    1.780700
H      1.615600   -2.728900    1.702900
H      0.049800   -3.080100    3.653400
H     -0.717400   -1.435400    3.342200
