16
gdb_15962
N     -0.078900   -1.083800   -0.384700
C     -0.055500    0.051700   -0.167500
C     -0.012400    1.480400    0.095200
C     -0.035500    1.927200    1.593900
N      1.339100    2.481700    1.469900
C      1.376000    2.155400    0.038100
C      2.589600    1.697100   -0.700500
C      1.921100    3.014400   -1.058800
H     -0.767900    1.978400   -0.517900
H     -0.818700    2.660300    1.808200
H     -0.104200    1.109500    2.315700
H      1.380800    3.478800    1.652900
H      3.531000    1.737200   -0.163400
H      2.490000    0.862600   -1.386900
H      1.369800    3.080000   -1.991900
H      2.426700    3.932500   -0.774300
