14
gdb_21922
O      0.678100   -0.058300    0.732400
C     -0.143200    0.329700   -0.388900
C     -1.501000   -0.288600   -0.293700
C     -1.740000   -1.528600    0.277000
O     -0.910000   -2.398900    0.875700
N     -3.060800   -1.776100    0.163200
N     -3.729200   -0.764200   -0.458200
C     -2.783200    0.127000   -0.725600
H      0.293200    0.348900    1.517400
H     -0.203600    1.423200   -0.467800
H      0.415700   -0.024600   -1.262900
H     -0.063500   -1.924500    0.961600
H     -3.561600   -2.581200    0.498400
H     -3.047900    1.046300   -1.229500
