20
gdb_13879
C     -0.062400    1.513500   -0.072400
C     -0.026200   -0.016900    0.021100
C      0.865400   -0.478200    1.181600
C     -1.455700   -0.581000    0.156800
O     -2.274000   -0.119000   -0.927900
C     -2.858300   -1.213800   -1.624500
C     -2.349700   -2.439900   -0.922200
C     -1.567200   -2.082700    0.088900
H      0.941400    1.917200   -0.240100
H     -0.710000    1.836900   -0.889900
H     -0.446300    1.951700    0.857300
H      0.382000   -0.414400   -0.917900
H      0.446900   -0.167700    2.146900
H      0.988600   -1.565300    1.203400
H      1.863000   -0.035000    1.100600
H     -1.880000   -0.196600    1.102500
H     -3.957400   -1.138400   -1.588700
H     -2.569200   -1.182900   -2.687000
H     -2.611900   -3.447000   -1.220900
H     -1.070900   -2.744800    0.785800
