16
gdb_16319
C      0.039700    1.365400    0.269200
O      0.017800    0.016600   -0.190900
C     -1.227600   -0.547300   -0.162600
C     -1.836400   -1.099000    1.128700
C     -1.619400   -2.036500   -0.013500
C     -2.774300   -1.870800   -1.013600
C     -2.298100   -0.401800   -1.210000
O     -2.540900    0.438500   -2.029500
H      1.076600    1.700400    0.205700
H     -0.590100    2.005500   -0.359000
H     -0.301500    1.434300    1.311200
H     -1.102500   -1.148200    1.927200
H     -2.842300   -0.837800    1.446900
H     -0.939500   -2.876100    0.028600
H     -2.653700   -2.429000   -1.946200
H     -3.784200   -2.026700   -0.623700
