16
gdb_16693
C     -0.047600    1.438500    0.085800
C     -0.025400   -0.047600    0.002200
C     -0.031900   -0.898500   -1.035000
C      0.054400   -2.248100   -0.342400
O     -0.875900   -2.089200    0.793400
C      0.061400   -1.021700    1.176800
C      1.212400   -1.989000    0.696500
O      1.520100   -3.039000    1.549400
H      0.833700    1.822300    0.614900
H     -0.068200    1.893200   -0.908300
H     -0.924600    1.793400    0.641400
H     -0.049700   -0.705400   -2.097800
H     -0.060400   -3.180000   -0.894200
H     -0.041500   -0.674100    2.204900
H      2.144600   -1.550900    0.334300
H      0.669400   -3.396100    1.841800
