10
gdb_21444
N     -0.001400    1.239200    0.433800
C     -0.047800    0.054500    0.021900
O      1.083900   -0.559900   -0.493600
N      1.070100   -1.882600   -0.964100
N      0.052300   -2.562700   -0.941800
O     -1.160500   -2.059700   -0.444400
C     -1.279800   -0.769000    0.049200
N     -2.379100   -0.350200    0.486800
H      0.937500    1.629700    0.328200
H     -3.101700   -1.070200    0.417900
