17
gdb_4947
C      0.001700    1.548100   -0.105100
C     -0.032800    0.031200    0.098300
N     -1.373700   -0.523700    0.040300
C     -2.118000   -0.961900    1.084700
N     -3.315700   -1.370800    0.715100
C     -3.356700   -1.181000   -0.642800
N     -4.527000   -1.462700   -1.354700
C     -2.167700   -0.654100   -1.092600
H      1.031800    1.913000   -0.046900
H     -0.403300    1.823000   -1.082900
H     -0.590500    2.054800    0.662100
H      0.586200   -0.467500   -0.656400
H      0.382800   -0.230400    1.076100
H     -1.733800   -0.968800    2.094500
H     -5.117700   -2.090600   -0.824400
H     -4.357500   -1.839200   -2.277700
H     -1.816200   -0.369000   -2.069700
