19
gdb_2339
C     -0.015200    1.470000   -0.054900
C     -0.189300   -0.016500   -0.314500
O      1.047500   -0.538200   -0.773500
C      1.006600   -1.902200   -1.045700
C      0.467500   -2.375400   -2.376900
C      1.956300   -2.423900   -2.082300
C      2.909100   -1.492500   -2.798100
H      0.760800    1.640400    0.696800
H      0.278600    1.988000   -0.972400
H     -0.951300    1.906600    0.305900
H     -0.497800   -0.537100    0.607200
H     -0.975800   -0.195100   -1.064200
H      0.808400   -2.522900   -0.169700
H     -0.099000   -3.299400   -2.423200
H      0.134700   -1.603200   -3.063300
H      2.360200   -3.411600   -1.874900
H      2.471500   -0.497700   -2.906700
H      3.845200   -1.381600   -2.239900
H      3.155300   -1.874000   -3.794800
