18
gdb_20209
C     -0.011600    1.578900   -0.117500
C      1.480600    1.989600   -0.038800
C      2.147900    0.868300    0.777500
O      1.899000    1.053400    2.176800
C      0.696400    0.384500    2.551200
C      0.331700   -0.541800    1.404400
C      0.000400    0.056700    0.047400
C      1.405000   -0.410100    0.362100
H     -0.604000    2.069400    0.663300
H     -0.460200    1.861500   -1.073700
H      1.913300    2.001800   -1.046200
H      1.647400    2.970400    0.413900
H      3.231700    0.825400    0.643800
H      0.883800   -0.184400    3.470500
H     -0.093000    1.119500    2.769500
H     -0.092900   -1.510100    1.644200
H     -0.640200   -0.539000   -0.593700
H      1.904800   -1.246300   -0.109300
