14
gdb_8867
O      0.160700    1.383600    0.004000
C      0.072800   -0.009200    0.177400
C     -1.393000   -0.466100    0.000300
O     -1.873300    0.012800   -1.231100
C     -1.513100   -1.982400    0.046200
O     -1.847600   -2.597400   -0.948900
C     -1.193400   -2.631400    1.294600
C     -0.926300   -3.142000    2.351400
H     -0.299800    1.573200   -0.823700
H      0.700500   -0.552700   -0.548100
H      0.430000   -0.242300    1.184700
H     -1.987100   -0.035700    0.819700
H     -2.019000   -0.775200   -1.780300
H     -0.692400   -3.607800    3.278500
