13
gdb_4674
O      0.073700    1.387400   -0.104300
C      0.065500    0.030600   -0.045100
C      0.029100   -0.790700   -1.134600
N      0.032700   -2.105300   -0.657800
C      0.002100   -3.246900   -1.446100
O      0.005300   -4.370200   -1.012900
C      0.071900   -2.092200    0.726000
C      0.092600   -0.791400    1.135700
H      0.101000    1.737300    0.790900
H      0.001200   -0.574100   -2.188500
H     -0.027000   -2.997500   -2.521900
H      0.080300   -3.023300    1.266100
H      0.123800   -0.445700    2.158800
