15
gdb_13326
O      0.410600    2.173100   -1.256700
C      0.113800    1.667100   -0.194900
N      0.960700    0.978000    0.628100
C      2.309700    0.697900    0.403700
N      2.946100   -0.133000    1.141400
C      4.327100   -0.115400    0.626900
C      4.261900    0.630100   -0.737900
N      2.996500    1.356300   -0.589900
H     -0.906400    1.716000    0.227000
H      0.584600    0.538500    1.455500
H      4.974400    0.418200    1.336000
H      4.719500   -1.131400    0.530900
H      5.099800    1.313700   -0.896500
H      4.224100   -0.072200   -1.582500
H      2.468900    1.700800   -1.380100
