16
gdb_20976
C     -0.102900    1.408700   -0.010200
N      0.239100   -0.001800   -0.046000
C      0.067100   -0.744300    1.187600
C      0.071400   -0.684000   -1.225100
N     -0.028600   -2.012200   -1.283100
N     -0.101900   -2.221300   -2.631700
C     -0.066100   -1.053900   -3.289700
N      0.041100   -0.050300   -2.441900
H      0.464200    1.896000    0.789300
H      0.156200    1.867900   -0.963400
H     -1.175800    1.578800    0.177800
H     -0.992000   -0.930100    1.428800
H      0.568800   -1.709900    1.108300
H      0.513400   -0.176000    2.009000
H     -0.188800   -3.158100   -2.986400
H     -0.119400   -0.976000   -4.365600
