20
gdb_8188
C     -0.026400    1.526600    0.060300
C      0.029900    0.011800    0.013000
C     -1.191100   -0.629600   -0.625400
C      1.322900   -0.752900   -0.274100
C      2.499600   -0.077400    0.408400
O      1.790800   -0.032600    1.674600
C      0.694600   -0.781100    1.112700
C      0.102700   -1.824200    2.005600
H      0.769100    1.937900    0.684200
H      0.054000    1.958400   -0.944100
H     -0.981200    1.857000    0.485200
H     -1.329500   -0.252300   -1.645300
H     -1.102100   -1.718200   -0.690000
H     -2.101500   -0.397900   -0.060700
H      1.384300   -1.518600   -1.037500
H      3.386700   -0.716500    0.490000
H      2.797300    0.918700    0.059500
H     -0.298200   -1.352600    2.910700
H     -0.714000   -2.357700    1.514300
H      0.860000   -2.551100    2.315400
