16
gdb_1666
C     -0.012400    1.344000    0.027700
O      0.075100   -0.086400   -0.024500
C      0.699600   -0.586700   -1.104900
O      1.176900    0.092000   -1.980800
C      0.674500   -2.108600   -1.103800
C     -0.706400   -2.574900   -1.615000
N      1.813700   -2.579300   -1.885600
H      0.985600    1.788900    0.042000
H     -0.556100    1.729400   -0.838500
H     -0.546900    1.574900    0.949000
H      0.783200   -2.439000   -0.064100
H     -0.876600   -2.219700   -2.636700
H     -0.748000   -3.668800   -1.620000
H     -1.514700   -2.207200   -0.975500
H      1.636300   -3.517100   -2.230200
H      1.922400   -1.970100   -2.692000
