17
gdb_5331
C     -0.255900    1.534000    0.082400
C      0.033000    0.062600    0.008400
C      0.054000   -0.695600   -1.156200
N      0.354900   -1.970900   -0.763600
C      0.617200   -3.394700   -1.013500
C      0.821300   -3.533900    0.546200
C      0.522400   -2.043400    0.583200
C      0.332200   -0.793600    1.124800
H      0.583000    2.093600    0.513200
H     -0.450000    1.947300   -0.911900
H     -1.133600    1.747100    0.704300
H     -0.119700   -0.411600   -2.181600
H     -0.236100   -3.940100   -1.427800
H      1.505500   -3.584800   -1.623400
H      0.096700   -4.187300    1.040000
H      1.829300   -3.835000    0.844600
H      0.389000   -0.492900    2.159700
