14
gdb_21722
N     -0.464300    1.310200    0.215500
C      0.354300    0.141000   -0.102800
C      0.887200   -0.470700    1.152700
C      0.495400   -0.402500    2.451800
C      1.441800   -1.235300    3.109300
O      1.466600   -1.487800    4.427300
N      2.323800   -1.756100    2.290100
O      1.969400   -1.259200    1.027700
H      0.127100    2.066100    0.547200
H     -0.924900    1.645300   -0.623900
H     -0.285700   -0.591900   -0.611500
H      1.204700    0.327800   -0.779000
H     -0.332700    0.140400    2.870800
H      2.210200   -2.082100    4.595600
