17
gdb_5111
C     -0.129100    1.440200    0.011000
N     -0.012100   -0.001400    0.002300
C      0.017300   -0.798900   -1.126900
N     -0.063600   -0.194400   -2.402500
C      0.044900   -2.113100   -0.722700
C      0.053100   -2.120900    0.703300
C      0.030200   -0.811200    1.121900
N     -0.036700   -0.221000    2.405000
H      0.850500    1.936400    0.011000
H     -0.672600    1.752600   -0.882500
H     -0.667500    1.742500    0.911100
H      0.840600    0.126200   -2.740400
H     -0.420900   -0.857600   -3.079400
H      0.073300   -2.971100   -1.377600
H      0.089000   -2.986000    1.348500
H     -0.378700   -0.894400    3.079700
H      0.869700    0.103500    2.732900
