14
gdb_15450
O     -0.031500    0.038300    0.092300
C     -0.054600    1.234900    0.056400
C     -1.303200    2.123900   -0.026300
C     -0.745700    3.519200   -0.010700
C      0.585200    3.549200    0.042800
C      1.204200    2.166600    0.068200
C      2.082500    1.915300    1.201500
C      2.795400    1.721300    2.149100
H     -1.866000    1.882000   -0.937300
H     -1.975600    1.904500    0.812900
H     -1.379500    4.397900   -0.040800
H      1.196600    4.442400    0.073100
H      1.758400    1.961500   -0.860900
H      3.428200    1.540600    2.982400
