13
gdb_18145
O      0.097700    1.361000   -0.011500
C     -0.026100   -0.017300   -0.006100
C     -0.459700   -0.784800    1.190100
O     -1.394300    0.019000    1.939000
C     -2.360300   -0.071200    0.855400
C     -2.922400    1.223400    0.457200
N     -3.407200    2.228000    0.156100
C     -1.350600   -0.767700   -0.054200
H     -0.255400    1.689500    0.825800
H      0.741300   -0.497100   -0.607400
H      0.063600   -1.564900    1.730000
H     -3.181100   -0.732200    1.154500
H     -1.595200   -1.532400   -0.778000
