17
gdb_20542
C      0.101700    1.528400    0.086800
C     -0.052800    0.002700   -0.051800
C     -1.527500   -0.420200   -0.079300
C      0.713400   -0.489600   -1.247400
N      2.010500   -0.323900   -1.461400
C      2.210500   -0.936100   -2.659500
N      1.133600   -1.471400   -3.209000
N      0.184200   -1.173100   -2.286900
H      1.157700    1.805700    0.093500
H     -0.381200    2.046200   -0.749100
H     -0.361200    1.875400    1.015800
H      0.419900   -0.457200    0.825800
H     -2.054200    0.023900   -0.932300
H     -1.640500   -1.508500   -0.129400
H     -2.034300   -0.078700    0.827200
H      3.176000   -0.990000   -3.140300
H     -0.766400   -1.465200   -2.439400
