14
gdb_21056
C      0.136300    1.389100   -0.039800
N      0.102000   -0.047200    0.006000
N      0.132700   -0.802700   -1.169700
C      0.090300   -2.019400   -0.749200
O      0.096400   -3.127900   -1.497800
N      0.034300   -2.122300    0.612500
C      0.041300   -0.818000    1.144900
N      0.003700   -0.384500    2.347700
H      1.055400    1.744900   -0.518200
H     -0.724000    1.785000   -0.590400
H      0.102400    1.740800    0.992200
H      0.137800   -2.846400   -2.421300
H     -0.003900   -2.971700    1.146300
H     -0.038900   -1.140900    3.023300
