16
gdb_11944
O     -0.312600    1.266800   -0.092700
C     -0.046200   -0.069900   -0.036300
C     -0.203500   -0.999800   -1.165600
C     -1.136700   -1.243000    0.021300
C     -0.361800   -1.872500    1.181100
C      0.667700   -0.690400    1.159300
C     -2.522900   -0.831700   -0.042900
O     -2.931200    0.002700   -0.838800
H     -1.095400    1.384900   -0.654600
H     -0.706500   -0.591300   -2.035800
H      0.539500   -1.766700   -1.375900
H     -0.934000   -1.909800    2.110700
H      0.050300   -2.867100    0.983000
H      1.720000   -0.945200    1.001000
H      0.582100   -0.055200    2.042200
H     -3.197100   -1.251500    0.734300
