17
gdb_7377
C      0.810100    1.062700    0.262300
N     -0.241500    0.056100    0.094500
H     -1.092700    0.497000   -0.228600
H      0.392900   -1.689700   -0.575400
C     -0.523400   -0.758800    1.277600
C      0.434700   -1.972900    1.300100
O      0.639700   -2.456800   -0.016900
C      1.778200   -1.626900    1.970700
O      1.857700   -1.148100    3.070400
O      2.845300   -1.916500    1.212000
H      1.778800    0.574600    0.400700
H      0.872800    1.669300   -0.645100
H      0.641300    1.728200    1.122200
H     -0.428400   -0.214600    2.226700
H     -1.548500   -1.129300    1.191000
H     -0.013800   -2.767800    1.906900
H      2.475200   -2.298200    0.390600
