13
gdb_15485
O     -0.164400    0.006600    0.001200
C     -0.023600    1.203000    0.007900
C      1.265000    1.919200    0.000500
C      1.387600    3.254300    0.009800
C      2.833500    3.657900   -0.001500
N      3.500500    2.380700   -0.019100
C      2.641600    1.297300   -0.018000
O      2.960300    0.133300   -0.029600
H     -0.902500    1.889500    0.021300
H      0.579900    3.976400    0.023500
H      3.066400    4.274600   -0.882700
H      3.084300    4.259700    0.885100
H      4.498600    2.257500   -0.027900
