15
gdb_5632
O      0.159100    1.365200    0.219500
C      0.018200    0.055600   -0.322600
C     -1.372600   -0.485400   -0.172500
C     -2.543200    0.245500   -0.126700
N     -3.588000   -0.620100    0.027900
C     -3.121000   -1.918500    0.084200
C     -1.750700   -1.852000   -0.036500
O     -0.834900   -2.867200   -0.038900
H     -0.151600    1.321900    1.130200
H      0.297900    0.156000   -1.378400
H      0.734900   -0.649600    0.124900
H     -2.694300    1.310400   -0.190900
H     -4.552700   -0.354700    0.106900
H     -3.787200   -2.757100    0.205000
H     -1.291400   -3.700600    0.108700
