9
gdb_929
O     -0.043300   -0.026200    0.003600
C      0.050300    1.156700    0.008600
O     -1.195100    1.900800    0.029100
C     -1.154400    3.220800    0.035300
N     -0.090500    3.947200    0.024600
C      1.073000    3.211300    0.005100
N      1.195800    1.921300   -0.003100
H     -2.145400    3.670100    0.050900
H      1.989600    3.798100   -0.004100
