15
gdb_21950
O      0.077200    1.431400    0.191600
C      0.065000    0.017500    0.151800
C     -1.355500   -0.543600   -0.057400
C     -1.370000   -2.035300   -0.089600
N     -0.814900   -2.808500   -1.010700
C     -1.080700   -4.065800   -0.561400
N     -1.759600   -4.130500    0.571400
N     -1.932300   -2.817200    0.858900
H     -0.092200    1.756600   -0.698300
H      0.728800   -0.384100   -0.625300
H      0.453500   -0.316500    1.119400
H     -2.009500   -0.167800    0.736200
H     -1.749100   -0.167800   -1.009200
H     -0.767900   -4.957200   -1.084300
H     -2.437500   -2.548600    1.687600
