15
gdb_8853
C     -0.007400    1.376400   -0.044400
O      0.039200   -0.056100    0.021500
C      0.665100   -0.548300    1.104500
O      1.162500    0.122200    1.976300
N      0.656000   -1.941900    1.073700
C      0.033500   -2.693500   -0.016100
C      1.263900   -2.631100    2.122000
O      1.311300   -3.834700    2.191100
H      1.002300    1.792600   -0.062700
H     -0.535200    1.608300   -0.968900
H     -0.543000    1.782600    0.816600
H      0.509100   -2.455500   -0.969800
H      0.170100   -3.749100    0.215000
H     -1.031100   -2.460900   -0.086100
H      1.687800   -1.943400    2.865800
