18
gdb_10213
C      0.331200    1.671000    0.215000
C     -0.002100    0.190100    0.222700
O      0.879900   -0.465800    1.124500
C      0.658400   -1.855900    1.255200
C      1.907700   -2.429600    1.936400
O      2.148900   -1.796900    3.176100
C     -0.577700   -2.140200    2.110500
O     -1.143800   -3.200800    2.126300
H      1.368500    1.828800   -0.093400
H     -0.323200    2.202700   -0.481800
H      0.198900    2.101200    1.211700
H     -1.049100    0.030600    0.525400
H      0.112300   -0.242900   -0.783800
H      0.523100   -2.342600    0.276800
H      1.754300   -3.494000    2.135200
H      2.759300   -2.320600    1.248100
H      2.186100   -0.850900    2.992300
H     -0.898100   -1.283200    2.744500
