18
gdb_6881
C     -0.249600    1.485000    0.000600
N      0.029600    0.055500    0.085300
C      1.355800   -0.449500   -0.303400
C      2.409600    0.459000   -0.679700
N      3.247000    1.191600   -0.998700
C      0.879500   -0.497000    1.134400
C      1.533700    0.391600    2.175800
C      0.408600   -1.838300    1.664000
H      0.609900    2.141200    0.186800
H     -0.629000    1.702100   -1.002100
H     -1.037200    1.724300    0.720800
H      1.340300   -1.360000   -0.898100
H      1.981400    1.291300    1.752700
H      0.797500    0.690200    2.930100
H      2.326200   -0.161300    2.689400
H      1.248600   -2.419800    2.058200
H     -0.310700   -1.691900    2.477400
H     -0.084600   -2.413800    0.877500
