13
gdb_21001
C     -0.005600    1.436000    0.047900
N      0.000700   -0.011500   -0.051200
C      0.062400   -0.801200   -1.137400
C      0.034700   -2.090300   -0.636700
C      0.078500   -3.342400   -1.399800
O      0.052400   -4.452100   -0.928100
N     -0.042500   -2.010800    0.729200
N     -0.062900   -0.768900    1.080600
H      0.911500    1.854200   -0.374700
H     -0.870700    1.853200   -0.473800
H     -0.064600    1.682900    1.107600
H      0.118900   -0.412000   -2.140900
H      0.140700   -3.181400   -2.500600
