14
gdb_20929
C     -0.090300    1.043600    0.984900
C      0.241200    0.308700   -0.311800
N      1.064300   -0.864900   -0.028700
C      1.924100   -1.227500   -0.851400
O      2.752200   -2.321600   -0.651600
C      3.538900   -2.361600   -1.742000
N      3.332600   -1.457400   -2.618700
O      2.264500   -0.694400   -2.069900
H     -0.592900    0.373000    1.687500
H      0.820300    1.414100    1.465000
H     -0.745800    1.897000    0.785100
H     -0.688400   -0.031300   -0.787500
H      0.728500    0.990900   -1.021400
H      4.283900   -3.138500   -1.812900
