16
gdb_15782
O      0.973000    1.515700   -0.414100
C      0.014700    0.596700    0.084000
C     -0.128500   -0.638700   -0.832400
C     -0.403300   -0.286400   -2.218000
C     -0.647100   -0.001300   -3.359300
C      0.376000    0.247200    1.516400
C      0.186600   -1.057500    2.160500
O      1.474900   -0.662100    1.681500
H      1.836000    1.087300   -0.360500
H     -0.933100    1.147000    0.087000
H      0.793700   -1.229600   -0.762800
H     -0.937400   -1.276500   -0.455200
H     -0.854000    0.253900   -4.368800
H      0.439500    1.125900    2.159500
H      0.087600   -1.103000    3.244000
H     -0.277700   -1.880700    1.622500
