19
gdb_8889
C     -0.032700    1.621200   -0.095400
C      0.009300    0.091200   -0.101400
N      0.724100   -0.459800   -1.255200
C      2.158200   -0.637900   -1.118100
C      0.021000   -0.741600   -2.380600
O     -1.188100   -0.547000   -2.469200
C      0.744800   -1.337400   -3.600200
O     -0.183900   -1.575000   -4.614000
H      0.972500    2.055200   -0.095300
H     -0.569100    1.986700   -0.974700
H     -0.552300    1.980900    0.798100
H      0.502000   -0.285300    0.802100
H     -1.006100   -0.307700   -0.127000
H      2.605000   -0.969000   -2.053800
H      2.640100    0.304800   -0.832900
H      2.387400   -1.382800   -0.345600
H      1.526500   -0.638300   -3.939300
H      1.253800   -2.269000   -3.306500
H     -1.028200   -1.270200   -4.235300
