17
gdb_19096
C     -0.021700    1.535900    0.077000
C      1.518400    1.467100   -0.020800
C      2.151900    0.734500    1.234300
C      1.052800    0.231200    2.181600
N      0.590400   -0.744200    1.133000
C     -0.021600   -0.002300   -0.059600
C      1.379500    0.076100   -0.749000
C      1.969800   -0.623500    0.485600
H     -0.495300    2.009100    0.942100
H     -0.440100    1.976300   -0.834500
H      2.080700    2.309400   -0.422300
H      3.096700    1.130100    1.612400
H      1.464400   -0.338200    3.021900
H      0.297100    0.922100    2.566700
H     -0.899500   -0.514100   -0.456500
H      1.590300   -0.111200   -1.799900
H      2.641500   -1.482200    0.527300
