14
gdb_8779
C     -0.064600    1.341600    0.100300
N     -0.072800   -0.105200    0.001300
C      0.617600   -0.635400   -0.943000
N      1.402600   -0.026800   -1.875900
C      0.597700   -2.134400   -1.062200
O      1.167200   -2.700100   -1.967000
C     -0.184800   -2.929400    0.006700
O     -0.298600   -4.121900   -0.091700
H      0.954100    1.736700    0.237700
H     -0.481900    1.819800   -0.800800
H     -0.669500    1.655600    0.953200
H      1.318600    0.958500   -2.052800
H      1.746900   -0.616500   -2.618500
H     -0.610200   -2.340200    0.834300
