18
gdb_14980
O      0.025500    1.411700    0.073800
C      0.045800    0.001500    0.009400
C     -1.363200   -0.576500   -0.027400
C     -1.409400   -2.104900   -0.088600
C     -2.791700   -2.599400    0.250700
C     -3.695600   -1.810500    0.825700
C     -3.378800   -0.394600    1.219400
O     -1.994100   -0.105700    1.164900
H     -0.598600    1.626000    0.778000
H      0.585500   -0.276500   -0.902100
H      0.582700   -0.435700    0.867800
H     -1.893700   -0.159600   -0.899500
H     -1.123300   -2.439900   -1.093800
H     -0.669100   -2.534800    0.601400
H     -3.036300   -3.628100    0.000400
H     -4.702300   -2.161000    1.036400
H     -3.946700    0.311300    0.585500
H     -3.687200   -0.206200    2.254900
