17
gdb_5314
C      0.030700    1.384500   -0.053500
N      0.007900   -0.044500   -0.298400
C      1.184700   -0.770300    0.164400
C     -1.221900   -0.646800   -0.115100
C     -2.469100   -0.162200    0.170700
C     -3.347500   -1.299000    0.130300
C     -2.579900   -2.375100   -0.157300
O     -1.269800   -1.989500   -0.315100
H      0.993900    1.786100   -0.379000
H     -0.758200    1.870500   -0.634200
H     -0.111900    1.643200    1.009700
H      1.301600   -0.735400    1.260500
H      1.117200   -1.813400   -0.143500
H      2.075800   -0.329300   -0.291400
H     -2.732100    0.857500    0.394800
H     -4.412300   -1.302000    0.304900
H     -2.767200   -3.428400   -0.274000
