12
gdb_16606
O      0.010500    0.007100   -0.188600
C     -0.045700    1.184300    0.025300
C     -1.300600    2.036200    0.237000
C     -0.764300    3.373200    0.707500
O      0.064200    3.237500    1.856800
C      0.710400    3.449200    0.582900
C      1.199100    2.134400    0.050200
O      2.295800    1.845300   -0.340300
H     -1.839800    2.122900   -0.714300
H     -1.975400    1.574400    0.962900
H     -1.370900    4.273400    0.666000
H      1.272600    4.368900    0.463900
