14
gdb_2771
O      0.116800    1.295300   -0.324700
C     -0.052400   -0.079700   -0.096700
C      0.369400   -0.583900    1.307100
N     -1.050100   -0.498800    1.721600
C     -1.503200   -0.538700    0.315800
C     -2.639200    0.398100   -0.028000
O     -3.392800    0.234300   -0.951700
H     -0.131400    1.766800    0.478900
H      0.369800   -0.590100   -0.962100
H      0.782300   -1.601700    1.277100
H      1.055200    0.061400    1.868000
H     -1.391200   -1.240600    2.322500
H     -1.726500   -1.534700   -0.089800
H     -2.719500    1.276700    0.651800
