19
gdb_1923
C     -0.021700    1.523100    0.023600
C      0.025500    0.012600    0.028100
C      0.981700   -0.799700   -0.902900
C      0.713700   -1.931600    0.127900
C      0.666900   -0.803300    1.195900
C     -0.782600   -2.220600   -0.097000
C     -1.305100   -0.748300   -0.172800
H      0.973200    1.956000    0.173700
H     -0.411400    1.904300   -0.927800
H     -0.673700    1.901300    0.820100
H      0.676900   -0.961400   -1.942700
H      2.009400   -0.428600   -0.866100
H      1.381100   -2.788600    0.226600
H      1.660000   -0.432600    1.463500
H      0.070500   -0.968400    2.099900
H     -0.964300   -2.781100   -1.018900
H     -1.226500   -2.784100    0.729300
H     -2.031400   -0.514500    0.612300
H     -1.769200   -0.511500   -1.135700
