12
gdb_1826
N     -0.112000    1.293900    0.037700
C     -0.007500    0.030800    0.008600
C     -1.207700   -0.913300   -0.011300
N     -0.583100   -2.220600    0.073500
C      0.786300   -2.165900   -0.017500
O      1.573900   -3.077800   -0.076600
N      1.102600   -0.796200   -0.015800
H      0.799900    1.752400    0.042900
H     -1.870500   -0.703900    0.834100
H     -1.779000   -0.771000   -0.936500
H     -1.057000   -3.085500   -0.119500
H      2.060600   -0.487700   -0.014500
