17
gdb_19106
C     -0.184500    1.498900    0.024800
C      0.002100   -0.014300   -0.000200
C      0.882200   -0.539400   -1.168300
C      1.107200   -2.033700   -0.870500
C      2.454000   -1.841000   -0.285700
C      2.189700   -0.314400   -0.298800
C      1.171800   -0.524800    0.865700
N      1.284900   -2.025900    0.627200
H      0.765400    2.025900   -0.119100
H     -0.865400    1.822800   -0.769200
H     -0.606000    1.828500    0.980300
H     -0.953200   -0.529900    0.148700
H      0.770700   -0.208700   -2.199800
H      0.644900   -2.906000   -1.314900
H      3.339300   -2.464300   -0.253700
H      2.890100    0.505600   -0.426200
H      1.318400   -0.244500    1.908500
