15
gdb_10458
O     -0.265900    0.876900    1.139600
C      0.027800    1.135600    0.002100
C      1.392300    1.652600   -0.422400
C      1.298100    2.893100   -1.309000
C      1.057300    4.247500   -0.652900
C      2.403100    3.937900   -1.233400
C      0.698500    2.673800   -2.602100
N      0.217600    2.480400   -3.636800
H     -0.700300    1.005500   -0.828800
H      1.971400    1.871200    0.478400
H      1.904900    0.850500   -0.970800
H      0.421800    4.952200   -1.174800
H      0.941900    4.241400    0.425300
H      3.224500    3.719800   -0.560500
H      2.688900    4.427100   -2.156700
