14
gdb_19581
O      0.006500   -0.042200    0.176400
C     -0.013300    1.131400   -0.018300
C     -1.037800    2.292000   -0.004900
O     -0.028200    2.915500    0.871900
C      0.976400    2.321700   -0.030800
C      0.704100    3.018100   -1.369400
C     -0.060600    2.242100   -2.415100
C     -0.820700    2.995600   -1.349800
H     -2.031000    2.236800    0.434300
H      1.981900    2.296000    0.382600
H      1.271800    3.899300   -1.640100
H     -0.079700    2.668700   -3.412500
H     -0.044500    1.156800   -2.405300
H     -1.420900    3.859600   -1.605400
