14
gdb_10370
C     -0.046400   -1.243100   -0.076700
C     -0.045700   -0.042100   -0.051700
C     -0.018500    1.412500    0.007300
C     -0.112100    2.016500    1.456300
O      1.217000    2.547900    1.383300
C      1.420700    2.044600    0.056800
C     -0.918000    2.015900   -0.965800
C     -1.651200    2.542600   -1.758400
H     -0.055900   -2.304700   -0.108300
H     -0.872400    2.796800    1.564500
H     -0.222700    1.265200    2.244800
H      2.230900    1.310200    0.004700
H      1.581700    2.841700   -0.676100
H     -2.302900    2.996400   -2.463600
