16
gdb_3249
C      0.090100    1.442800   -0.091200
C      1.332900    0.648800   -0.001000
N     -0.034500   -0.018500    0.063800
C      0.234200   -0.600800   -1.303800
C      1.644900   -0.000400   -1.326900
C      2.466700    0.524800   -2.467900
C      2.911400   -0.703600   -1.702200
H     -0.230000    1.987300    0.792200
H     -0.188300    1.902000   -1.038100
H      1.993600    0.679800    0.860500
H      0.216200   -1.692600   -1.254600
H     -0.473300   -0.260600   -2.068900
H      2.085600    0.386900   -3.474700
H      3.018700    1.447900   -2.321800
H      3.764900   -0.607800   -1.038200
H      2.834800   -1.670300   -2.190500
