22
gdb_17973
C     -0.009300    1.518400    0.094000
C      1.438900    2.049600    0.028900
C      2.360600    1.441000   -1.038800
C      1.888200    1.580400   -2.488000
O      0.602300    1.047100   -2.749900
C      0.435900   -0.339900   -2.489800
C     -0.556900   -0.578000   -1.350800
C     -0.168600   -0.020300    0.030500
H     -0.441600    1.883600    1.033100
H     -0.600100    1.966300   -0.709500
H      1.402300    3.138900   -0.104900
H      1.915800    1.883800    1.003800
H      3.346900    1.918400   -0.971900
H      2.536600    0.382400   -0.813100
H      1.814500    2.640100   -2.759100
H      2.636100    1.122700   -3.157500
H      0.050500   -0.806700   -3.406900
H      1.400300   -0.819100   -2.271600
H     -1.517600   -0.138400   -1.648800
H     -0.723300   -1.660700   -1.272400
H      0.744900   -0.512700    0.390300
H     -0.955200   -0.323700    0.730800
