19
gdb_14232
C     -0.060600    1.590700   -0.054400
C      0.087300    0.079800   -0.075800
C      0.750800   -0.685100   -1.243000
C      2.171300   -0.069700   -1.325500
C      2.383500   -0.633900    0.082500
C      3.654000   -0.706000    0.868200
C      1.306100   -1.635700   -0.113900
N      1.090800   -0.530300    0.865800
H      0.878600    2.107100   -0.266900
H     -0.803600    1.914900   -0.791700
H     -0.401800    1.915400    0.934000
H     -0.874000   -0.386200    0.169700
H      0.206600   -0.963800   -2.144200
H      2.795200   -0.612300   -2.041700
H      2.270200    1.006400   -1.502200
H      3.998200    0.296000    1.149000
H      3.503600   -1.277500    1.788000
H      4.448800   -1.184900    0.286000
H      1.206100   -2.687800    0.120800
