15
gdb_4197
O     -0.120600    1.350600    0.022900
N      0.028600   -0.058100    0.025100
C     -1.088100   -0.637200    0.049700
C     -2.599400   -0.334500   -0.014600
C     -2.622900   -1.562900   -0.999400
C     -1.519400   -2.109300   -0.019700
C     -2.329700   -2.174000    1.286900
C     -3.023400   -1.029100    1.290100
H      0.796500    1.643800    0.006300
H     -3.000200    0.642900   -0.266300
H     -3.556600   -2.129400   -1.039600
H     -2.241400   -1.329000   -1.997600
H     -0.838400   -2.916500   -0.277000
H     -2.279800   -2.959800    2.026400
H     -3.694300   -0.623900    2.033500
