10
gdb_21835
O     -0.326100    0.039400    0.003700
C     -0.095100    1.217100    0.008400
N      1.172700    1.779600   -0.000800
C      2.367700    1.101800   -0.016000
N      2.567900   -0.188200   -0.027300
O      3.933200   -0.283300   -0.039700
N      4.486800    0.973800   -0.034900
N      3.552000    1.817800   -0.020700
H     -0.868500    2.007000    0.020900
H      1.256000    2.786000    0.005100
