19
gdb_5949
C     -0.053900    1.580900    0.091400
C      0.003100    0.044000    0.082100
C      0.715400   -0.485300    1.338200
C     -1.420400   -0.537300   -0.004000
O     -2.146500   -0.124200    1.136200
N      0.687400   -0.435200   -1.134700
C      1.971500   -0.164400   -1.480600
O      2.756000    0.515600   -0.850700
H      0.955000    1.993200    0.130000
H     -0.547000    1.951900   -0.813200
H     -0.621800    1.923500    0.959000
H      0.165500   -0.180100    2.231000
H      0.764200   -1.579100    1.319700
H      1.732200   -0.093600    1.385000
H     -1.896300   -0.179900   -0.932700
H     -1.354200   -1.637200   -0.058800
H     -3.038200   -0.477300    1.074300
H      0.168400   -1.025200   -1.767100
H      2.240400   -0.650300   -2.442000
