15
gdb_12498
O      0.047600    0.002900   -0.508000
C      0.044300    1.131000   -0.089600
N     -1.104800    1.839300    0.193800
C     -1.231100    3.291200    0.069600
C     -0.526300    4.046100    1.191000
O      0.884300    3.931300    1.117000
C      1.355400    2.635000    1.283600
O      1.214000    1.801800    0.133800
H     -1.921000    1.304600   -0.063800
H     -0.848400    3.646400   -0.896300
H     -2.299000    3.524300    0.112900
H     -0.745600    5.114500    1.111700
H     -0.888600    3.681300    2.164400
H      2.432400    2.712800    1.435500
H      0.873400    2.144400    2.142100
