14
gdb_1495
C      0.040400    1.510500    0.113000
C      0.001000   -0.001200   -0.001000
O      0.685700   -0.536100    1.146300
C      0.756100   -1.874800    1.225000
N      0.249700   -2.639700    0.341000
C      1.458300   -2.303800    2.405400
C      2.036600   -2.714700    3.375900
H      1.071500    1.874600    0.128300
H     -0.471600    1.958900   -0.743500
H     -0.456700    1.846700    1.027200
H     -1.023000   -0.388800   -0.016100
H      0.495300   -0.361100   -0.909300
H      0.409300   -3.615000    0.582600
H      2.548600   -3.073800    4.234900
