14
gdb_21935
O      0.058300    1.304800   -0.498300
C     -0.025100    0.008600    0.083800
C     -1.447400   -0.448800    0.019700
N     -1.734300   -1.711700   -0.270200
N     -3.091200   -1.768700   -0.194800
C     -3.641100   -0.574700    0.117400
O     -4.985900   -0.486900    0.209400
C     -2.608200    0.324300    0.273700
H      0.949300    1.635100   -0.349800
H      0.601600   -0.726000   -0.441300
H      0.309500    0.036700    1.134100
H     -3.575200   -2.627400   -0.392500
H     -5.219600    0.422400    0.419600
H     -2.669100    1.372900    0.511200
