22
gdb_12281
C      0.309700    1.279300    0.391800
C      0.267200   -0.220300    0.081700
C      0.606700   -0.535000   -1.376200
C      2.117400   -0.456200   -1.758900
C      2.191500   -2.011200   -1.852600
C      2.937200   -2.704600   -0.715400
C      0.630300   -2.050600   -1.762900
O      0.001100   -2.995600   -0.929500
H      1.300000    1.701100    0.189100
H     -0.413600    1.826400   -0.222700
H      0.073000    1.476100    1.442100
H      0.961100   -0.741300    0.756200
H     -0.731700   -0.615100    0.305300
H     -0.050400    0.062400   -2.018200
H      2.302200    0.047800   -2.710400
H      2.770200   -0.004500   -1.004900
H      2.577600   -2.387100   -2.805200
H      2.638200   -2.328200    0.270300
H      2.760900   -3.785000   -0.728900
H      4.015700   -2.536600   -0.804200
H      0.185900   -2.208700   -2.749500
H      0.358400   -2.903600   -0.040800
