21
gdb_1297
C     -0.010800    1.510700   -0.040700
C      0.017200   -0.008400   -0.016700
O      0.675600   -0.466500   -1.177900
C      0.758200   -1.872900   -1.260600
C      1.448900   -2.263100   -2.567200
C      1.670900   -3.779400   -2.617700
C      0.658700   -1.764500   -3.783100
H      1.006200    1.912500   -0.066100
H     -0.542500    1.870500   -0.926300
H     -0.515800    1.898100    0.849400
H      0.539500   -0.370900    0.885600
H     -1.008600   -0.413700    0.024700
H      1.320300   -2.272600   -0.398500
H     -0.252400   -2.319400   -1.220500
H      2.428700   -1.766700   -2.566300
H      0.715800   -4.318400   -2.601600
H      2.194500   -4.066600   -3.534900
H      2.266800   -4.130100   -1.768200
H      1.194200   -1.976300   -4.714300
H     -0.318600   -2.259700   -3.841400
H      0.487700   -0.687700   -3.717900
