15
gdb_2381
C      0.272500    1.521300   -0.418800
C     -0.019100    0.106100    0.003000
O      1.064700   -0.809600    0.035500
C      0.446800   -0.502600    1.280300
C      1.247500    0.283000    2.288000
C      0.737500    0.197800    3.714400
O      2.215600    0.938000    1.978300
H      1.189200    1.884500    0.046300
H      0.389800    1.562000   -1.506800
H     -0.561300    2.178000   -0.148400
H     -0.940800   -0.320700   -0.400100
H     -0.159300   -1.307400    1.699800
H      0.860300   -0.823500    4.094300
H      1.293100    0.889900    4.347500
H     -0.333800    0.425700    3.758700
