14
gdb_17234
O     -0.325500    0.581800   -0.824300
C      0.150500    1.054300    0.186000
C      1.318100    1.934200    0.198700
C      1.902700    2.870100    1.254900
C      2.839000    3.353200    0.116800
O      3.689000    2.190900   -0.132700
C      2.558500    1.594900   -0.730500
C      1.804400    2.835100   -0.951500
H     -0.277400    0.822200    1.187300
H      1.187200    3.644700    1.542700
H      2.396300    2.450500    2.136100
H      3.379200    4.296000    0.137600
H      2.635400    0.658800   -1.265500
H      1.255900    3.255600   -1.781900
