19
gdb_16895
C      0.131900    1.580800    0.000800
C     -0.020700    0.054000    0.013500
C      0.554400   -0.570200   -1.277300
C      0.683500   -2.087600   -1.203400
N      2.041000   -2.607500   -0.923600
C      0.979400   -2.703300    0.113100
C      1.085500   -1.803100    1.288900
C      0.615300   -0.556400    1.245500
H      1.189600    1.866700   -0.015100
H     -0.346600    2.016200   -0.882600
H     -0.324500    2.033300    0.887500
H     -1.099000   -0.168600    0.051200
H     -0.068800   -0.283100   -2.131800
H      1.552500   -0.153900   -1.451600
H      0.069000   -2.659600   -1.894100
H      2.153500   -3.517800   -1.365800
H      0.584200   -3.697600    0.313500
H      1.541700   -2.195400    2.194100
H      0.678200    0.076500    2.128500
