11
gdb_23718
F     -0.008700    0.025900    0.003700
C     -0.010900    1.360400    0.010500
C     -1.215800    2.046500    0.030000
N     -1.270600    3.381700    0.037600
C     -0.131900    4.034900    0.025700
F     -0.213100    5.362600    0.033700
C      1.131400    3.447500    0.006000
C      1.188900    2.061300   -0.001800
H     -2.154400    1.500400    0.039700
H      2.022800    4.061600   -0.002700
H      2.132000    1.527800   -0.017100
