13
gdb_16257
N      0.012600    1.226200    0.014800
C     -0.019600   -0.021300    0.060800
O      1.010900   -0.955600    0.199000
C      0.079300   -2.039100   -0.017600
C     -0.908900   -2.068800    1.080800
C     -1.096300   -1.062300   -0.081200
C     -2.258300   -1.005800   -0.892200
C     -3.246100   -0.957300   -1.576000
H      0.964400    1.581000    0.118700
H      0.375600   -2.833500   -0.687800
H     -1.633000   -2.876400    1.058600
H     -0.629400   -1.706000    2.064600
H     -4.114600   -0.904600   -2.184600
