17
gdb_3199
C     -0.028800    1.572800   -0.006800
C      1.487100    1.938500   -0.019900
C      2.128300    0.532400    0.016200
C      1.985600   -0.075800    1.430100
C      0.469700   -0.441500    1.443300
C      0.042300    0.029200    0.034300
O      1.207000   -0.251700   -0.756300
H     -0.567300    1.991100    0.847600
H     -0.527200    1.911300   -0.918000
H      1.761400    2.463400   -0.937800
H      1.789700    2.559700    0.827200
H      3.123900    0.463000   -0.422500
H      2.610200   -0.966300    1.531200
H      2.268300    0.625800    2.219400
H      0.321700   -1.518400    1.551000
H     -0.088700    0.057100    2.239800
H     -0.819200   -0.488200   -0.388300
