16
gdb_19466
O     -0.874300    1.101200    0.324400
C      0.216800    0.925400   -0.163200
C      1.370800    1.884300   -0.130100
C      1.299400    3.083400   -1.169100
C      0.377300    3.803100   -0.138100
C      1.335700    3.098500    0.846000
O      2.602800    3.725200    0.599300
C      2.638200    3.756600   -0.847400
H      0.443500   -0.024800   -0.699300
H      2.310100    1.321600   -0.145300
H      1.035000    2.936000   -2.215500
H      0.382200    4.895500   -0.132800
H     -0.632700    3.401600   -0.106200
H      1.163400    3.001800    1.915600
H      3.513100    3.207800   -1.213800
H      2.688800    4.792200   -1.203900
