11
gdb_2642
C     -0.018100    1.478900    0.010200
C      0.001900    0.029100    0.002000
C      0.018500   -1.183500   -0.004700
C      0.036900   -2.534700   -0.012100
C      0.053400   -3.753100   -0.018700
C      0.071400   -5.106100   -0.026100
C      0.087400   -6.315800   -0.032600
H      0.998600    1.887800    0.002800
H     -0.543100    1.871400   -0.868000
H     -0.526200    1.861600    0.902600
H      0.101500   -7.377400   -0.038300
