17
gdb_19437
C      0.020400    1.458600    0.001400
O      1.199000    0.644000   -0.057000
C     -0.081500   -0.000600    0.012300
C     -0.401500   -0.840000    1.247800
C     -0.274500   -2.311100    0.771400
C     -0.559900   -2.247700   -0.721200
N     -1.774900   -1.468500   -1.041500
C     -0.437900   -0.840600   -1.180100
H     -0.115800    2.015500    0.928100
H     -0.209700    2.014900   -0.906900
H      0.273100   -0.594200    2.070400
H     -1.426200   -0.636200    1.567900
H      0.745300   -2.682500    0.922300
H     -0.956900   -2.980500    1.303300
H     -0.286300   -3.078700   -1.363100
H     -2.105200   -1.732600   -1.966500
H     -0.061000   -0.562300   -2.158100
