17
gdb_18876
O      0.024700    1.473700    0.123200
C     -0.010400    0.069300   -0.027600
C     -1.386100   -0.553800   -0.054200
C     -2.044500   -0.431900   -1.379900
C     -1.627500    0.657900   -2.358400
C     -0.118100    0.375100   -2.569300
C      0.218000   -0.577800   -1.427800
N     -1.003500   -1.470400   -1.214300
H      0.932800    1.740800    0.296400
H      0.611700   -0.423800    0.729600
H     -1.917500   -0.928800    0.815400
H     -3.052400   -0.832400   -1.437700
H     -2.192700    0.574900   -3.290900
H     -1.800100    1.654400   -1.946000
H      0.063400   -0.112100   -3.532200
H      0.487000    1.284300   -2.526500
H      1.136700   -1.151200   -1.555100
