20
gdb_5971
C     -0.003900    1.404400   -0.011100
O      0.001700   -0.003000    0.002100
C      0.642900   -0.561400   -1.122700
C      0.597600   -2.102600   -1.013300
C      1.336000   -2.559800    0.265200
C     -0.870900   -2.583400   -0.980700
C      1.271400   -2.646000   -2.196600
C      1.825900   -3.082100   -3.170400
H      1.017400    1.816700   -0.013100
H     -0.534900    1.802200   -0.890300
H     -0.518200    1.738200    0.893300
H      0.143600   -0.241900   -2.052000
H      1.691200   -0.225400   -1.178100
H      0.864500   -2.112300    1.143000
H      1.302300   -3.648500    0.358000
H      2.385700   -2.253100    0.238800
H     -1.395400   -2.293500   -1.895800
H     -0.915300   -3.672200   -0.894000
H     -1.386200   -2.136400   -0.127600
H      2.314100   -3.473900   -4.028100
