12
gdb_64
C     -0.002400    1.550400    0.010600
C     -0.018600    0.010000   -0.022600
C     -1.450500   -0.557700    0.012900
C      0.701300   -0.485800   -1.201700
N      1.261900   -0.871300   -2.136200
H      1.019600    1.936700    0.003500
H     -0.529700    1.961400   -0.855000
H     -0.501300    1.903500    0.917600
H      0.524800   -0.362200    0.855300
H     -2.024300   -0.214300   -0.852500
H     -1.444400   -1.650300    0.007500
H     -1.958100   -0.217300    0.920000
