12
gdb_21353
N      0.033000    1.323300    0.009300
C      1.282300    1.892200    0.000200
C      2.130200    0.808700   -0.013900
N      3.414900    0.307000   -0.029000
C      3.273300   -1.072800   -0.035100
N      2.039500   -1.503200   -0.025400
C      1.296200   -0.337300   -0.012000
N     -0.000100   -0.027100    0.002300
H     -0.842200    1.819000    0.020400
H      1.416700    2.960500    0.004600
H      4.283900    0.810400   -0.035200
H      4.147800   -1.708900   -0.047000
