17
gdb_4055
C      0.647900    1.286100    0.157700
C     -0.137300    0.010300   -0.147000
C      0.408600   -0.769100   -1.361400
C      1.407500   -1.684900   -0.702400
C      1.069700   -1.757200    0.769000
O     -0.067300   -0.923300    0.940600
N      2.369500   -2.241000   -1.317200
O      3.128900   -3.031800   -0.431000
H      1.722400    1.085700    0.230800
H      0.496900    2.028800   -0.632800
H      0.313200    1.715500    1.105700
H     -1.197400    0.253100   -0.266400
H     -0.392000   -1.358800   -1.823000
H      0.855800   -0.139300   -2.132400
H      0.820900   -2.775200    1.088900
H      1.927300   -1.424800    1.373100
H      3.819800   -3.377300   -1.005800
