16
gdb_4904
C     -0.034000    1.467300    0.002600
C      0.001600   -0.024600   -0.023400
N     -0.034500   -0.779400   -1.101400
C      0.020900   -2.082200   -0.654500
C      0.001600   -3.231300   -1.608400
O      0.060400   -4.436000   -0.858600
C      0.091300   -2.118100    0.710200
N      0.077500   -0.793400    1.103300
H      0.866000    1.891000    0.463400
H     -0.098100    1.830700   -1.023700
H     -0.899400    1.847200    0.558200
H     -0.911800   -3.182300   -2.223400
H      0.853200   -3.146400   -2.303100
H      0.051600   -5.170800   -1.477500
H      0.146900   -2.932500    1.410500
H      0.116500   -0.458800    2.051100
