20
gdb_8702
C      0.127700    1.620000    0.109900
C      0.110100    0.089700    0.039800
C      0.711200   -0.491600   -1.261400
C     -0.089200   -0.102300   -2.506200
O      2.065000   -0.038200   -1.277000
C      2.833400   -0.390900   -2.411100
C      0.730500   -2.013400   -1.069700
O     -0.055700   -2.788300   -1.547100
H      1.140300    1.999300   -0.043000
H     -0.524900    2.069700   -0.644100
H     -0.222100    1.955700    1.090600
H      0.685900   -0.314400    0.881400
H     -0.913100   -0.288700    0.141900
H     -0.048200    0.976900   -2.670300
H      0.286300   -0.606800   -3.399400
H     -1.131200   -0.404700   -2.382200
H      2.793600   -1.468800   -2.628400
H      2.522000    0.153400   -3.312200
H      3.867400   -0.122600   -2.181500
H      1.557700   -2.347200   -0.400200
