20
gdb_14264
C      0.035800    1.573700   -0.218600
C      1.535900    1.477000    0.178800
C      1.185700    0.155700    0.923900
C     -0.083100    0.033800    0.023300
C      0.124900   -0.762300   -1.237900
C      1.231300   -0.780200   -1.984400
C      2.538000   -0.073700   -1.699600
C      2.486700    1.314200   -1.021800
H     -0.540000    2.143600    0.516900
H     -0.201100    1.937100   -1.222100
H      1.900000    2.293800    0.809000
H      1.904700   -0.666000    0.897400
H      0.910400    0.346000    1.965100
H     -0.993200   -0.298700    0.528400
H     -0.726600   -1.349400   -1.575200
H      1.229200   -1.400900   -2.878300
H      3.161600   -0.742400   -1.088100
H      3.090200    0.034100   -2.640500
H      2.220000    2.070800   -1.770900
H      3.508700    1.553300   -0.703300
