15
gdb_17993
N     -0.409500   -1.034500   -0.777600
C     -0.247300    0.043500   -0.393400
C     -0.020000    1.413100    0.075600
O     -0.055900    1.540200    1.511500
C      1.245400    2.182000    1.537200
C      2.394200    1.194400    1.827800
C      2.551000    0.944800    0.292300
C      1.423300    1.972500    0.005800
H     -0.764300    2.069000   -0.394200
H      1.210600    3.143900    2.052800
H      3.268400    1.664500    2.285300
H      2.091300    0.338400    2.433500
H      3.517600    1.262900   -0.102400
H      2.355000   -0.071200   -0.057100
H      1.602600    2.759300   -0.724100
