17
gdb_3977
C     -0.288600    1.539000   -0.096000
C      0.008300    0.047600   -0.006100
O     -1.164800   -0.729100   -0.136700
C      1.229700   -0.409800   -0.892800
C      2.022000   -0.525900    0.389000
C      0.801600   -0.370700    1.269700
N      3.272500   -0.605400    0.569100
O      3.580200   -0.627800    1.944600
H      0.618000    2.133400    0.054300
H     -0.691900    1.796000   -1.083700
H     -1.023300    1.826400    0.662300
H     -1.632900   -0.438400   -0.927100
H      1.029800   -1.381800   -1.355100
H      1.600600    0.285200   -1.650700
H      0.870600    0.352500    2.085700
H      0.438900   -1.324000    1.666100
H      4.542200   -0.671800    1.934700
