17
gdb_12670
C     -0.072300    1.540700    0.031700
C     -0.021900    0.010700    0.008700
C      0.867100   -0.529600   -1.147100
N      2.190100   -0.614400   -0.536500
C      2.171300   -0.571200    0.819000
O      3.109500   -0.517400    1.590400
C      0.698600   -0.570500    1.244100
O      0.523800    0.139200    2.439400
H      0.934500    1.971700    0.043000
H     -0.594400    1.920300   -0.852100
H     -0.590500    1.892600    0.925400
H     -1.036100   -0.386900   -0.081600
H      0.524700   -1.513000   -1.496300
H      0.875900    0.148000   -2.006500
H      3.051200   -0.660200   -1.057100
H      0.398400   -1.626100    1.371600
H      1.399600    0.149200    2.856400
