15
gdb_12756
O     -0.014200    1.411100    0.043500
C     -0.017900    0.035300    0.029800
C     -0.333500   -0.787000   -1.183800
C     -1.211300   -0.906700    0.044700
C     -0.527100   -1.809800    1.074800
C      0.692400   -0.812100    1.111900
C      2.020500   -1.323300    0.804900
N      3.066500   -1.731500    0.526700
H      0.676400    1.725000   -0.551500
H     -0.772700   -0.211400   -1.992200
H      0.304500   -1.609000   -1.500100
H     -2.266300   -0.668000    0.016600
H     -1.034700   -1.857600    2.039000
H     -0.292100   -2.823100    0.739700
H      0.717700   -0.268000    2.058700
