15
gdb_18537
N      0.154100    1.059400    0.473500
C      0.044100   -0.105500    0.021700
O      0.963100   -0.909800   -0.618600
C     -0.014500   -2.022800   -0.687900
C      0.246000   -3.102600    0.316900
C     -0.532100   -2.964800    1.392200
C     -1.481600   -1.790700    1.304500
C     -1.084900   -1.118400   -0.026700
H      1.096100    1.426400    0.326800
H     -0.125700   -2.341600   -1.725900
H      0.993400   -3.872900    0.170700
H     -0.509000   -3.616400    2.259500
H     -2.526900   -2.122800    1.294100
H     -1.379800   -1.107800    2.154900
H     -1.929100   -0.805700   -0.640600
