10
gdb_80
N      0.018400    0.930600    0.049400
H     -0.706700    0.561200   -0.555500
H      0.682500    0.184300    0.214900
H      0.219300    2.798600   -0.326700
C     -0.545900    1.446900    1.302700
C     -0.804700    2.960300    1.210500
O     -0.214700    3.536500    0.155300
O     -1.453000    3.563400    2.021400
H     -1.476600    0.965100    1.620700
H      0.177800    1.303200    2.111600
