15
gdb_10890
C     -0.005900    1.550000    0.036200
C     -0.035900    0.055300   -0.052000
C     -0.842300   -0.813600    0.812500
N      0.647700   -0.837300    1.020100
C      1.124400   -1.679300   -0.057400
O      1.771800   -2.678900   -0.016500
C      0.579300   -0.767300   -1.182200
O     -0.323500   -1.295200   -2.120300
H      0.980400    1.943600   -0.229000
H     -0.740900    1.985700   -0.649600
H     -0.246600    1.883500    1.049100
H     -1.357400   -0.356600    1.651100
H     -1.323800   -1.699100    0.408300
H      1.409700   -0.224900   -1.660800
H      0.140900   -1.968800   -2.629800
