17
gdb_17299
O     -0.047000    1.417100   -0.000800
C      0.004900    0.020000   -0.013100
C      0.432100   -0.717900   -1.318700
C     -0.908500   -1.521400   -1.289500
C     -1.336300   -0.765300    0.004100
C     -0.921400   -1.373500    1.365200
N      0.357300   -2.102300    1.163600
C      0.371300   -0.634500    1.351800
H      0.858000    1.750000    0.001700
H      0.502300   -0.020300   -2.157300
H      1.342800   -1.315600   -1.254900
H     -1.561200   -1.323400   -2.142200
H     -0.789200   -2.597900   -1.166100
H     -2.279300   -0.220000    0.010200
H     -1.570500   -1.635600    2.192200
H      0.607200   -2.524400    2.057300
H      0.933000   -0.173800    2.157200
