14
gdb_3378
N      0.068300   -1.146000    0.030100
C      0.052900    0.011100    0.036300
C      0.053200    1.449900    0.057200
C      0.485200    2.248300    1.273200
C      1.599100    1.519700    2.034100
C      2.469800    1.538400    0.731900
C      1.331300    2.266400    0.007700
H     -0.773700    1.893100   -0.489300
H     -0.176500    3.006500    1.674000
H      2.030600    2.133300    2.826800
H      1.339100    0.540200    2.443500
H      3.359000    2.161800    0.840000
H      2.761700    0.570800    0.315900
H      1.438600    3.041200   -0.741700
