17
gdb_14672
C     -0.144700    1.371600   -0.569800
C     -0.071300    0.138200    0.348700
C     -1.360600   -0.521600    0.527700
C     -2.441300   -1.037100    0.658200
C     -3.733900   -1.689900    0.834700
N     -3.854600   -2.905400    0.033900
C     -4.954700   -3.172300   -0.717500
O     -5.954200   -2.486500   -0.760000
H      0.843700    1.829100   -0.672300
H     -0.502200    1.094100   -1.565000
H     -0.830400    2.119000   -0.162000
H      0.648700   -0.582200   -0.060400
H      0.324200    0.432100    1.329400
H     -3.896400   -1.916400    1.897700
H     -4.558000   -1.040300    0.522300
H     -3.054100   -3.513100   -0.033900
H     -4.837500   -4.109900   -1.296000
