13
gdb_19609
O     -0.042400    1.492100   -0.151300
C     -0.020000    0.093600   -0.105300
C     -1.361100   -0.612200   -0.161300
C     -1.802700   -0.750200   -1.586700
N     -0.817200   -1.743200   -0.965500
C      0.296200   -0.717800   -1.387800
C     -0.697000   -0.195100   -2.429100
O     -0.608600    0.236400   -3.539900
H      0.849300    1.827100   -0.012800
H      0.559700   -0.289500    0.744400
H     -2.062400   -0.779300    0.648500
H     -2.811600   -1.032700   -1.857800
H      1.292400   -1.059800   -1.655800
