24
gdb_14791
C     -0.052100    1.545900   -0.046900
C      0.003500    0.016700    0.000000
C      0.737200   -0.522600    1.232800
C      0.794000   -2.052300    1.281300
C      1.523500   -2.578900    2.509500
O      1.526600   -3.989300    2.468600
C      2.182700   -4.580000    3.569700
C      2.123600   -6.090700    3.417800
H      0.954500    1.978600   -0.064400
H     -0.581600    1.900000   -0.937100
H     -0.568900    1.950700    0.830500
H     -1.016700   -0.388800   -0.018600
H      0.495000   -0.361000   -0.906200
H      1.758200   -0.115800    1.251700
H      0.245300   -0.143800    2.139900
H     -0.221300   -2.467600    1.273800
H      1.294800   -2.439600    0.385400
H      2.558600   -2.193700    2.535600
H      1.029600   -2.223000    3.431300
H      3.230900   -4.237100    3.618400
H      1.702000   -4.267400    4.513100
H      2.625000   -6.579400    4.258600
H      1.085100   -6.432500    3.385700
H      2.614400   -6.402300    2.491300
