11
gdb_21783
O     -0.853100    1.100200    0.254400
C      0.255200    0.810400   -0.118400
C      1.411300    1.759400   -0.062000
C      1.280900    3.061200    0.432400
N      2.317100    3.893700    0.476500
N      3.496100    3.457700    0.035100
C      3.576800    2.209100   -0.428400
N      2.584200    1.317700   -0.504000
H      0.517800   -0.182700   -0.534800
H      0.329300    3.433100    0.795800
H      4.557400    1.899000   -0.776800
