20
gdb_15430
C      0.112100    1.455700    0.337600
C     -0.110500   -0.057900    0.302300
C     -1.386200   -0.458100   -0.453200
C     -1.572500   -1.956400   -0.488000
O     -2.006000   -2.600600    0.718700
C     -2.856900   -2.674900   -0.439600
C     -4.214700   -2.036800   -0.282900
O     -5.034700   -2.809900    0.578700
H      1.026100    1.710200    0.882700
H      0.201700    1.867900   -0.673800
H     -0.722200    1.967800    0.829600
H      0.754600   -0.547200   -0.164100
H     -0.171100   -0.451800    1.323700
H     -2.252100    0.021700    0.013200
H     -1.335400   -0.089500   -1.487100
H     -0.752200   -2.487300   -0.979100
H     -2.892900   -3.671200   -0.885100
H     -4.118500   -1.004600    0.078800
H     -4.727200   -2.008500   -1.250900
H     -4.553900   -2.897300    1.409800
