18
gdb_19065
O      0.096800    1.384600   -0.025000
C      0.085200   -0.014300   -0.041200
C     -0.312100   -0.753600    1.212800
C     -1.241900   -0.731800   -0.008500
C     -1.335100   -2.242700   -0.292600
C     -1.559000   -2.791700    1.160700
C     -0.089200   -2.272000    1.343900
C      0.122100   -2.756500   -0.118500
H     -0.626600    1.692300    0.531300
H      0.900500   -0.353500   -0.668000
H     -0.519100   -0.173900    2.107500
H     -2.149200   -0.135500   -0.033800
H     -1.954100   -2.556700   -1.133200
H     -2.341700   -2.324700    1.765000
H     -1.638000   -3.881600    1.201400
H      0.550700   -2.615700    2.156800
H      0.165300   -3.846300   -0.170900
H      0.927200   -2.338700   -0.723900
