19
gdb_9937
C      1.886600   -3.878800    1.611700
C      1.044000   -2.817500    0.937000
N      0.076400   -1.976500    1.631600
C     -0.125400   -2.082800    3.068100
C      1.293200   -1.333000    1.090300
C      2.398500   -0.801400    1.992900
C      1.046800   -0.479500   -0.052400
C      0.881300    0.238900   -1.002500
H      2.295300   -3.571100    2.575100
H      1.290200   -4.783000    1.776900
H      2.726200   -4.153500    0.964700
H      0.683600   -3.130200   -0.042800
H      0.767600   -2.303600    3.668700
H     -0.551900   -1.142700    3.431600
H     -0.858400   -2.874600    3.254100
H      3.313300   -0.661000    1.409800
H      2.115300    0.173200    2.402900
H      2.628400   -1.467300    2.824900
H      0.717000    0.868300   -1.841700
