16
gdb_11976
C     -0.034200    1.564900   -0.091400
C     -0.004500    0.041600   -0.037100
C     -1.372200   -0.568000    0.286400
C      0.728700   -0.676800   -1.196000
O      2.064700   -0.196700   -1.205300
C      1.750300   -1.288800   -0.308900
C      1.080900   -0.621000    0.887900
O      1.206200   -0.695600    2.073500
H      0.934400    1.961600   -0.403200
H     -0.799100    1.916700   -0.792800
H     -0.271800    1.973000    0.896200
H     -2.117300   -0.251800   -0.451500
H     -1.341300   -1.663000    0.290400
H     -1.707400   -0.239500    1.274200
H      0.320600   -1.078100   -2.116700
H      2.337200   -2.195200   -0.398700
