17
gdb_19846
C     -0.020100    1.512500   -0.014100
C      1.406500    2.095500    0.045300
C      2.196300    1.546900    1.216100
O      1.454300    1.285800    2.411300
C      1.953600    0.167300    1.678500
C      0.966200   -0.683400    0.927800
N     -0.451500   -0.624700    1.318400
C     -0.024600   -0.010100    0.045300
H     -0.593400    1.891100    0.835300
H     -0.514500    1.856700   -0.927500
H      1.960300    1.868700   -0.876200
H      1.354800    3.188300    0.116300
H      3.180300    1.986800    1.382600
H      2.757500   -0.370700    2.181100
H      1.369500   -1.642600    0.609400
H     -0.886200   -1.526800    1.141200
H     -0.295000   -0.528600   -0.871500
