18
gdb_14225
C      0.045500    1.438200    0.078900
C     -0.014300   -0.058400   -0.002000
C     -1.257600   -0.923000   -0.240900
C     -0.393300   -2.118100    0.231500
C      0.573000   -1.080000    0.945000
C      1.195100   -0.900700   -0.433300
C      0.680700   -2.266700   -0.884500
O      1.597500   -3.321100   -0.689100
H      1.028000    1.778600    0.423300
H     -0.140300    1.898600   -0.898700
H     -0.705100    1.825200    0.777400
H     -2.048600   -0.674700    0.474000
H     -1.682600   -0.975600   -1.251400
H     -0.833200   -3.009500    0.674700
H      0.973000   -0.979600    1.944000
H      2.139800   -0.433700   -0.686600
H      0.314800   -2.382300   -1.910600
H      2.014000   -3.182800    0.170300
