12
gdb_16258
N     -0.011400    1.225200    0.001600
C     -0.028000   -0.019800    0.055200
O      1.003800   -0.953100    0.190500
C      0.078600   -2.040900   -0.014100
C     -0.907700   -2.077700    1.084700
C     -1.099500   -1.067000   -0.069500
C     -2.262300   -1.028700   -0.886500
N     -3.210800   -1.013200   -1.548200
H      0.932900    1.601600    0.092200
H      0.366300   -2.831900   -0.691800
H     -1.624400   -2.892100    1.063200
H     -0.635500   -1.706700    2.067000
