14
gdb_12657
O      0.360900    1.153800    0.613100
C     -0.038900   -0.061500    0.053500
C     -1.545800   -0.176000   -0.256000
C     -1.636900   -1.358600   -1.248400
C     -0.356900   -1.280800   -2.074900
O     -0.106900   -1.804200   -3.125200
C      0.600200   -0.335600   -1.295900
O      1.608800    0.177600   -1.704900
H      1.179000    1.406400    0.160500
H      0.238600   -0.912900    0.707200
H     -2.145900   -0.320700    0.643600
H     -1.872900    0.754200   -0.732400
H     -1.638400   -2.321400   -0.720000
H     -2.521400   -1.345000   -1.888500
