14
gdb_8591
O     -0.216000   -0.000200   -0.402800
C     -0.020500    1.103800   -0.027600
O     -1.008400    2.046800    0.361500
C      0.076200    2.885300    0.862500
C      0.942400    4.179600    0.835800
C      1.870000    2.930400    1.245400
C      0.744500    2.486100    2.200600
C      1.132700    2.156900    0.078200
H      1.134300    4.628000   -0.139500
H      0.778000    4.927000    1.615500
H      2.938300    2.983400    1.451600
H      0.547500    3.120800    3.065900
H      0.714900    1.423600    2.450800
H      1.332300    2.540300   -0.925900
