15
gdb_9708
C      0.038600    1.460400    0.069600
C     -0.038100   -0.074600   -0.000100
C      0.786100   -0.660400   -1.200000
O      1.834300   -1.431500   -0.573400
C      1.608600   -1.335200    0.756100
N      0.638600   -0.650800    1.196900
C     -1.434200   -0.513300   -0.047700
C     -2.581200   -0.863800   -0.118200
H      1.085200    1.777300    0.099200
H     -0.446500    1.909600   -0.802000
H     -0.459800    1.817400    0.973000
H      0.197900   -1.325600   -1.834200
H      1.249600    0.118600   -1.810900
H      2.319600   -1.878600    1.368900
H     -3.594400   -1.178900   -0.165900
