13
gdb_3436
N      0.022000    1.330200    0.129800
C     -0.009600   -0.037500    0.011600
N     -1.084400   -0.728300   -0.091300
C     -0.736400   -2.154600   -0.027800
C      0.784400   -2.234800    0.014100
O      1.409200   -1.637600   -1.127500
C      1.259400   -0.845100    0.064700
H      0.820200    1.798300   -0.271800
H     -0.859900    1.783200   -0.066400
H     -1.174800   -2.610500    0.869800
H     -1.148100   -2.683900   -0.895000
H      1.319700   -3.067000    0.462700
H      2.174800   -0.500200    0.536800
