15
gdb_18064
N      0.020500   -1.081500    0.358200
C     -0.008200    0.055100    0.152200
C     -0.022300    1.491800   -0.120300
C      1.377200    2.089500   -0.080700
C      1.661300    3.579600   -0.142700
C      0.650900    4.346900    0.701600
O      0.868600    3.464000    1.837000
C      1.912400    2.791300    1.129000
H     -0.493300    1.655000   -1.096500
H     -0.646500    1.980300    0.635000
H      2.131800    1.511500   -0.607600
H      2.348500    4.011900   -0.857100
H      0.979000    5.362800    0.944700
H     -0.396200    4.366400    0.377300
H      2.807100    2.523500    1.678500
