18
gdb_6791
N     -0.007900    1.316000   -0.484500
C     -0.059100    0.017300    0.187600
C     -1.449300   -0.595000    0.025400
N     -1.540800   -1.888600    0.710000
H     -0.932500   -3.242900   -0.508700
H     -1.350400   -1.769600    1.698300
C     -2.811900   -2.583900    0.511600
C     -2.753400   -3.506900   -0.717700
O     -1.499500   -3.764500   -1.119300
O     -3.726800   -3.971300   -1.244000
H      0.873000    1.777100   -0.282100
H     -0.030800    1.184400   -1.491900
H      0.691900   -0.712700   -0.158500
H      0.135400    0.184800    1.255300
H     -2.205100    0.123700    0.377400
H     -1.648600   -0.768100   -1.040300
H     -3.013300   -3.226100    1.375600
H     -3.675900   -1.916500    0.397000
