18
gdb_16548
C     -0.014400    1.538700   -0.024900
C      1.506900    1.807600    0.002300
C      2.032500    1.514100    1.434800
C      1.392500    0.283400    2.040800
C      0.455100   -0.425900    1.408800
C     -0.000400   -0.006700    0.015800
C      1.143200   -0.294900   -0.963200
C      1.993700    0.732200   -0.961400
H     -0.554900    1.981200    0.816700
H     -0.449100    1.898700   -0.962300
H      1.780900    2.823200   -0.297600
H      3.125500    1.393000    1.422500
H      1.840300    2.381100    2.083000
H      1.739700   -0.015600    3.027300
H      0.027200   -1.316400    1.860300
H     -0.951600   -0.470200   -0.255600
H      1.267300   -1.239200   -1.480000
H      2.942800    0.781300   -1.482900
