16
gdb_10688
C     -0.093300    1.570900    0.291800
C     -0.022300    0.064800   -0.011200
N      0.805700   -0.703600    0.917900
C     -1.426400   -0.548800   -0.025500
C     -1.680000   -1.947000    0.371800
O     -1.982000   -0.861900    1.256500
C     -2.358500    0.064800   -0.959000
N     -3.070200    0.558400   -1.724300
H      0.912800    2.000700    0.287600
H     -0.694900    2.108400   -0.447500
H     -0.534600    1.739900    1.280000
H      0.393200   -0.077200   -1.017100
H      1.765200   -0.378200    0.865300
H      0.486000   -0.532100    1.867600
H     -2.546500   -2.462800   -0.035900
H     -0.822300   -2.548800    0.654600
