19
gdb_8886
C     -0.025200    1.569000    0.059200
C     -0.057300    0.042300   -0.028300
C      0.748600   -0.484600   -1.232700
O      2.083500   -0.055200   -1.173600
C      0.741700   -2.022600   -1.277400
O      1.772000   -2.638200   -1.035700
N     -0.437500   -2.615800   -1.577900
C     -0.608800   -4.056000   -1.638200
H      1.007500    1.921500    0.110000
H     -0.494000    2.025900   -0.819900
H     -0.558300    1.924000    0.946300
H      0.369400   -0.396600    0.881900
H     -1.094200   -0.312300   -0.096000
H      0.288800   -0.102600   -2.159600
H      2.590900   -0.869600   -1.010200
H     -1.226100   -2.026200   -1.788200
H     -0.926200   -4.375300   -2.636600
H      0.355500   -4.509800   -1.409000
H     -1.348900   -4.399200   -0.907200
