15
gdb_17703
O     -0.130200    1.421200    0.031900
C      0.026100    0.062200    0.035700
C     -1.018600   -1.020400    0.139700
C      0.003100   -0.988600   -1.033100
N      1.162600   -1.764400   -0.503900
C      0.529800   -2.924000    0.232400
C     -0.194800   -1.890100    1.115800
C      0.986500   -0.915600    0.776300
H      0.576200    1.808800   -0.498200
H     -2.086800   -0.963800   -0.016200
H     -0.277800   -0.960800   -2.077800
H     -0.056500   -3.608400   -0.387800
H      1.307700   -3.475100    0.769100
H     -0.579700   -2.087900    2.115400
H      1.859000   -0.709400    1.393700
