15
gdb_2181
O     -0.175400    1.473400    0.302300
C     -0.016500    0.069200    0.116700
C      0.585300   -0.532900    1.400800
O     -0.258500   -1.608200    1.793600
C     -1.573100   -1.254800    1.403200
C     -1.409400   -0.636400    0.003100
O     -2.437900    0.241600   -0.386100
H     -0.360300    1.858400   -0.561200
H      0.606700   -0.125700   -0.762700
H      1.594200   -0.930900    1.271000
H      0.611100    0.257300    2.166400
H     -2.190600   -2.155100    1.424300
H     -2.015600   -0.507000    2.084600
H     -1.369800   -1.427900   -0.750400
H     -2.308700    1.041700    0.141000
