18
gdb_10560
C     -0.011200    1.522100   -0.039000
C      0.214800    0.009800    0.016800
C      0.426900   -0.603700   -1.375700
C      0.688600   -2.090500   -1.328900
C      1.754200   -2.726900   -2.139500
O      1.935600   -2.525000   -0.749600
C     -0.448300   -2.997100   -0.959800
O     -1.605100   -2.663000   -0.934200
H      0.845400    2.036500   -0.489200
H     -0.896700    1.769100   -0.634900
H     -0.158500    1.936700    0.962900
H      1.090500   -0.214500    0.637100
H     -0.644300   -0.473900    0.494200
H     -0.462600   -0.436300   -1.994100
H      1.269200   -0.110400   -1.873600
H      1.662300   -3.765500   -2.456800
H      2.339000   -2.086100   -2.797600
H     -0.119100   -4.029900   -0.707200
