16
gdb_1869
C     -0.051000    1.549600    0.006500
C      0.060400    0.027800    0.006400
C      0.904300   -0.538400   -1.163200
N      1.384800   -1.798500   -0.627600
C      1.384500   -1.878300    0.741800
O      1.831900   -2.790300    1.400700
C      0.731700   -0.587100    1.247800
H      0.935300    2.016300    0.109600
H     -0.499600    1.916200   -0.923400
H     -0.673700    1.899400    0.835800
H     -0.944300   -0.403000   -0.081600
H      0.308200   -0.686300   -2.069600
H      1.732300    0.142600   -1.415300
H      1.897000   -2.475900   -1.170200
H      1.529000    0.060200    1.636000
H      0.049900   -0.795300    2.074300
