12
gdb_21704
N     -0.004800    1.355200   -0.039700
C     -0.079600    0.019100   -0.174900
N     -1.048400   -0.654000    0.346700
C     -1.074600   -2.006900    0.178400
C     -1.988200   -2.924200    0.631500
N     -1.576100   -4.153800    0.202600
N     -0.512500   -4.079200   -0.460500
O     -0.134300   -2.671900   -0.508000
H      0.748000    1.880400   -0.444600
H     -0.719100    1.840500    0.479000
H      0.733600   -0.428800   -0.751100
H     -2.878800   -2.776500    1.215700
