15
gdb_4028
N     -0.325100    1.202500   -0.470400
C     -0.178200   -0.079900   -0.082700
N      1.081800   -0.590300   -0.006500
H      1.069800   -1.587500    0.183400
H      1.755400   -0.277500   -0.689600
C     -1.293900   -0.852000    0.272300
C     -2.661400   -0.254900    0.432000
O     -3.060400    0.574900   -0.682800
N     -1.021500   -2.179100    0.456100
O     -1.955700   -2.922900    0.797100
H      0.467300    1.803200   -0.612600
H     -1.262800    1.518000   -0.685800
H     -3.361300   -1.081400    0.591500
H     -2.718800    0.415000    1.297100
H     -3.117400    0.000400   -1.454400
