17
gdb_4541
C     -0.045600    1.459100    0.022600
N      0.040900    0.015200    0.005200
C      0.042100   -0.795100   -1.121900
C      0.058000   -2.107100   -0.723200
C      0.082500   -3.310000   -1.616000
C      0.055600   -2.109300    0.710700
C      0.041200   -0.793200    1.105500
O      0.025500   -0.192500    2.326500
H      0.464100    1.862100   -0.855800
H     -1.085300    1.808400    0.016200
H      0.441900    1.843500    0.920000
H      0.038000   -0.356000   -2.106900
H      0.977800   -3.922400   -1.452700
H     -0.783100   -3.961800   -1.446100
H      0.072100   -3.017000   -2.670200
H      0.072700   -2.971400    1.360800
H      0.099900   -0.878600    2.996000
