14
gdb_20447
C      1.039400    1.118200    0.107900
N      0.459200    0.112100   -0.790700
C     -0.327100    0.575100    0.365200
C     -0.592700   -0.428600    1.412700
C     -0.098400   -1.705900    1.546200
N     -0.674000   -2.154100    2.686000
N     -1.483100   -1.229000    3.232900
N     -1.433200   -0.181500    2.460700
H      1.871400    0.766000    0.710600
H      1.121900    2.147100   -0.232500
H      0.121100    0.549700   -1.642900
H     -1.154000    1.259200    0.192700
H      0.569300   -2.293900    0.941400
H     -0.580200   -3.052000    3.133000
