13
gdb_1238
C     -0.190800    1.578600   -0.132800
C      0.051500    0.075200    0.079000
O     -1.153300   -0.630800    0.339000
C      0.786500   -0.498900   -1.052700
C      1.339600   -0.969400   -2.019000
C      2.038400   -1.520500   -3.151500
O      1.514100   -2.162100   -4.032700
H      0.755100    2.118900   -0.229400
H     -0.777100    1.748800   -1.041200
H     -0.743600    1.972100    0.723500
H      0.652300   -0.059300    0.986700
H     -1.669100   -0.646800   -0.475400
H      3.126600   -1.306800   -3.158700
