24
gdb_14789
C      0.046000    1.583400    0.010000
C      0.016100    0.052600    0.002100
C     -1.403800   -0.524100    0.012600
C     -1.442500   -2.055600    0.004800
C     -2.862900   -2.630900    0.015300
C     -2.894200   -4.162000    0.007400
C     -4.306800   -4.729800    0.017900
O     -4.212800   -6.147300    0.009400
H      1.072000    1.964600    0.002300
H     -0.468200    1.993900   -0.866300
H     -0.451300    1.984500    0.900400
H      0.550900   -0.320100   -0.881600
H      0.567600   -0.329500    0.871500
H     -1.939800   -0.150900    0.896800
H     -1.956600   -0.141500   -0.857100
H     -0.907000   -2.428600   -0.879300
H     -0.890200   -2.438000    0.874500
H     -3.397800   -2.257200    0.899800
H     -3.414600   -2.247800   -0.854800
H     -2.372900   -4.545900   -0.878300
H     -2.356100   -4.555300    0.878800
H     -4.844700   -4.372200    0.911700
H     -4.861700   -4.362700   -0.861600
H     -5.104300   -6.507400    0.016100
