19
gdb_17319
C     -0.038800    1.632900   -0.005000
C      0.068100    0.116600    0.121600
N      1.160700   -0.786200   -0.350400
C      2.538900   -0.350300    0.093900
C      2.713400    0.897300    0.915000
C      2.170600   -0.349600    1.559100
C      0.748400   -0.755300    1.110800
C      0.092800   -1.937600    1.765600
H      0.652300    2.028400   -0.754000
H     -1.050300    1.890500   -0.331700
H      0.138200    2.153200    0.939500
H     -0.855000   -0.360200   -0.207900
H      3.366000   -0.822500   -0.420600
H      3.757300    1.071000    1.166300
H      2.151900    1.808100    0.785200
H      2.661900   -0.841200    2.388700
H     -0.285500   -1.670700    2.760200
H     -0.745000   -2.303300    1.165800
H      0.807000   -2.759700    1.888400
