20
gdb_15010
O      0.025300    1.409300    0.122800
C      0.043900    0.003900   -0.014500
C     -1.366000   -0.574700   -0.033100
C     -1.410800   -2.099800   -0.147600
C     -2.854100   -2.606500   -0.005800
C     -3.497700   -2.032800    1.265100
C     -3.333300   -0.512400    1.298200
O     -1.969200   -0.136600    1.186400
H     -0.590400    1.586400    0.844500
H      0.551200   -0.225700   -0.957600
H      0.612100   -0.474900    0.800400
H     -1.917700   -0.125900   -0.878200
H     -0.982000   -2.410400   -1.107400
H     -0.785700   -2.531200    0.644800
H     -3.436700   -2.289800   -0.881600
H     -2.878300   -3.701200    0.007500
H     -4.561600   -2.290300    1.318800
H     -3.013300   -2.458400    2.152500
H     -3.916100   -0.052900    0.481200
H     -3.689600   -0.091000    2.242900
