14
gdb_20385
C      0.014100    1.427100    0.081100
C      1.491500    1.936200   -0.099200
C      2.207100    0.629700    0.024500
C      1.339100   -0.420300   -0.087800
N      0.013500   -0.015900   -0.298100
N      2.000100   -1.595900   -0.059500
N      3.283200   -1.319200    0.065600
N      3.415200    0.030300    0.094700
H     -0.277500    1.555400    1.132700
H     -0.689900    1.987100   -0.539100
H      1.636700    2.388500   -1.088800
H      1.747300    2.691900    0.648800
H     -0.684700   -0.560600    0.192000
H      4.338500    0.419200    0.194200
