17
gdb_15254
C     -1.893800    0.578400   -0.869200
N     -0.820500   -0.386400   -0.638500
C      0.434700   -0.310800   -1.346900
C      0.768100    0.738100   -2.389700
O      0.279000    0.352500   -3.668500
C      0.372600   -0.015900    0.143500
C      0.621500    1.351900    0.672800
O      0.265700    2.398100    0.176200
H     -1.573900    1.616400   -0.999400
H     -2.452800    0.249000   -1.751900
H     -2.576000    0.539000   -0.014900
H      0.837600   -1.291500   -1.601100
H      0.416300    1.729600   -2.091100
H      1.857000    0.793600   -2.493500
H     -0.680000    0.430200   -3.653300
H      0.707400   -0.797900    0.822900
H      1.185800    1.349200    1.631900
