22
gdb_12015
C     -0.103300    1.543200   -0.063500
C     -0.002700    0.031100    0.011100
C     -1.233600   -0.686300   -0.512700
C      1.341900   -0.619400   -0.233100
C      0.741900   -0.627900    1.157600
C      1.370700    0.128700    2.285400
C      0.724100    0.136400    3.650300
C      2.011700   -0.619000    3.430400
H      0.808900    2.038900    0.277700
H     -0.284700    1.865200   -1.095900
H     -0.933400    1.915800    0.548500
H     -1.419300   -0.436000   -1.564500
H     -1.123700   -1.773400   -0.444900
H     -2.128000   -0.405100    0.056400
H      1.379700   -1.549400   -0.791500
H      2.194900    0.031300   -0.402300
H      0.322200   -1.581600    1.474000
H      1.870400    1.048900    1.998100
H      0.753500    1.050200    4.233800
H     -0.185600   -0.441400    3.778700
H      1.967300   -1.703300    3.412200
H      2.923800   -0.221400    3.861700
