12
gdb_21830
O     -0.286600    0.052500    0.001900
C     -0.064700    1.241800    0.008300
N      1.180000    1.810600    0.001300
C      2.380300    1.109300   -0.013900
N      3.535800    1.773800   -0.018200
N      4.432700    0.790000   -0.033200
N      3.961100   -0.444000   -0.039100
C      2.637800   -0.276300   -0.026900
H     -0.858000    2.012200    0.021000
H      1.254800    2.817000    0.008100
H      5.420600    0.982200   -0.039800
H      1.946500   -1.098800   -0.027500
