12
gdb_20694
C      0.002100    1.473200   -0.004200
C     -0.047800   -0.021000    0.010400
N     -1.157600   -0.637100   -0.258900
C     -1.150600   -2.023300   -0.231900
O     -2.085400   -2.748100   -0.455100
N      0.113600   -2.566800    0.097800
N      1.224300   -1.891700    0.366200
N      1.177600   -0.619300    0.331100
H      0.752700    1.810900   -0.726300
H     -0.974600    1.882500   -0.258400
H      0.322800    1.841900    0.975600
H      0.206800   -3.574300    0.139700
