11
gdb_1598
N     -0.053300    1.278600   -0.028800
C      0.034600   -0.065700   -0.074200
O      1.056800   -0.698000   -0.255200
C     -1.302300   -0.857700    0.054300
O     -1.019700   -2.217300    0.133900
C     -2.074600   -0.380200    1.217300
N     -2.677700    0.053900    2.102400
H      0.800700    1.813300   -0.055800
H     -0.890200    1.733000    0.299100
H     -1.900600   -0.630500   -0.843700
H     -0.050800   -2.266900    0.028100
