12
gdb_2960
O      0.003500   -0.068700   -0.058000
C     -0.057800    1.139100   -0.020400
C      1.185600    1.940800    0.020900
N      2.152600    2.574100    0.053400
C     -1.307600    1.926200   -0.011600
C     -2.491000    1.349900   -0.788400
C     -2.510700    1.302200    0.694900
H     -1.194900    3.002600    0.024500
H     -3.119500    2.065800   -1.304500
H     -2.292900    0.426200   -1.319500
H     -2.326000    0.346000    1.170600
H     -3.153300    1.983900    1.239000
