17
gdb_4837
C      0.318200    1.462000   -0.155000
C     -0.064700    0.001600    0.139400
C      0.577500   -0.537500    1.370800
N      0.018900   -0.938300    2.468200
C      1.080800   -1.325800    3.279100
C      2.250600   -1.136200    2.623700
C      3.683500   -1.351400    2.942400
O      1.937700   -0.626000    1.387000
H      1.399500    1.564000   -0.282100
H     -0.167300    1.807100   -1.072200
H      0.009100    2.119000    0.663300
H     -1.144100   -0.094800    0.277900
H      0.212600   -0.627100   -0.716000
H      0.924600   -1.712400    4.273900
H      4.150900   -2.055100    2.244200
H      4.252400   -0.415900    2.895700
H      3.778400   -1.758400    3.951700
