19
gdb_12542
C      0.018100    1.585400   -0.020900
C     -0.005900    0.050900   -0.022800
C      0.777000   -0.517600   -1.209800
C      0.536000   -2.001500   -1.442400
O      1.117600   -2.894800   -0.489500
C      0.793800   -2.838100    0.832600
N      0.503200   -1.894100    1.612700
C      0.526600   -0.473500    1.321600
H      1.044000    1.963200    0.061900
H     -0.410400    1.988700   -0.943900
H     -0.554000    1.991500    0.819400
H     -1.051400   -0.277000   -0.120700
H      0.475800    0.000700   -2.129600
H      1.852300   -0.333900   -1.082600
H     -0.545200   -2.196700   -1.486500
H      0.972000   -2.313900   -2.394900
H      0.863200   -3.848400    1.240100
H      1.570300   -0.136900    1.430500
H     -0.028400    0.022100    2.126600
