14
gdb_21528
N     -0.112800    1.394800   -0.131600
C     -0.054700    0.000800   -0.068100
C     -1.089600   -0.886700    0.031500
C     -2.568100   -0.683300    0.017600
O     -2.947800    0.315400   -0.929500
O     -0.602000   -2.146500    0.145900
N      0.778400   -2.105800    0.125500
C      1.094000   -0.838000    0.001600
H      0.633800    1.804500   -0.676600
H     -1.013600    1.712000   -0.469800
H     -3.068500   -1.643700   -0.166600
H     -2.926600   -0.307100    0.982600
H     -2.694600   -0.006300   -1.802000
H      2.137000   -0.554500   -0.035800
