15
gdb_18099
C      0.008700    1.506000    0.010100
O      1.404000    1.883500   -0.001300
C      2.121400    0.742200   -0.014200
N      3.380800    0.574000   -0.027200
C      3.586600   -0.889300   -0.037000
C      2.177300   -1.608300   -0.027500
C      1.253700   -0.430500   -0.012200
C     -0.010300   -0.010500    0.002100
H     -0.460000    1.938000    0.903900
H     -0.477000    1.947500   -0.870000
H      4.168900   -1.167300   -0.922600
H      4.185500   -1.176700    0.834400
H      2.033900   -2.240200   -0.909200
H      2.050600   -2.249800    0.849900
H     -0.930600   -0.579100    0.007900
