16
gdb_11248
C      0.400900    1.422800   -0.307000
C     -0.002400   -0.010300    0.043700
O      0.323300   -0.903800   -1.035000
C      1.312400   -1.823600   -0.638200
C      2.655400   -1.580600   -1.335500
O      2.944900   -0.584500   -1.939000
C      1.467400   -1.626200    0.855400
C      0.725900   -0.590000    1.227800
H      1.472800    1.471100   -0.513300
H     -0.137700    1.753600   -1.199100
H      0.158400    2.104300    0.515500
H     -1.092600   -0.051900    0.190000
H      0.995800   -2.850000   -0.893200
H      3.374600   -2.426000   -1.215300
H      2.113600   -2.233800    1.474900
H      0.638800   -0.183900    2.227700
