19
gdb_9522
C      0.135700    1.535700    0.187400
C     -0.019500    0.029900   -0.045500
C      0.652200   -0.470700   -1.332100
C      0.023900    0.095500   -2.609100
N      2.152900   -0.376700   -1.280300
C      2.338600   -1.832800   -1.525800
C      0.818200   -2.004400   -1.397200
O      0.066000   -2.931400   -1.349300
H      1.194000    1.814800    0.178000
H     -0.381900    2.126700   -0.574700
H     -0.278900    1.819600    1.159200
H      0.425100   -0.508300    0.799100
H     -1.078900   -0.251500   -0.076200
H      0.159500    1.180600   -2.660500
H      0.477500   -0.344100   -3.503700
H     -1.049500   -0.114900   -2.638000
H      2.538700    0.201900   -2.018000
H      2.712800   -2.111700   -2.520100
H      2.944500   -2.347700   -0.772100
