14
gdb_1309
C     -0.056800    1.593100   -0.009800
C     -0.042500    0.072900   -0.021400
O     -1.332000   -0.480300    0.147400
C      0.719900   -0.619000   -1.193500
N      1.686600   -1.096700   -0.194500
C      1.023200   -0.602400    0.896800
O      1.180800   -0.696300    2.086100
H      0.938400    2.002400   -0.209300
H     -0.753900    1.968200   -0.765000
H     -0.380000    1.957200    0.971000
H     -1.549800   -0.414800    1.084900
H      0.132200   -1.409600   -1.667000
H      1.147200    0.047700   -1.948000
H      2.447100   -1.757000   -0.264900
