22
gdb_7493
C     -0.194200    1.570700    0.266200
C     -0.041300    0.057200    0.086900
C     -1.387400   -0.665200   -0.050500
C     -1.286400   -2.190800   -0.168100
O     -0.525700   -2.579600   -1.299000
C     -0.950200   -2.913700    1.178800
C     -2.461200   -3.228300    1.347400
C     -2.666700   -2.893500   -0.154700
H      0.779300    2.064400    0.345400
H     -0.727000    2.016400   -0.580800
H     -0.762300    1.805000    1.173200
H      0.568800   -0.131300   -0.806800
H      0.516900   -0.355700    0.937400
H     -2.018900   -0.418600    0.813500
H     -1.911600   -0.290000   -0.939300
H      0.359100   -2.210000   -1.211100
H     -0.364000   -3.815000    0.982100
H     -0.460100   -2.332800    1.965100
H     -2.723600   -4.237500    1.670300
H     -2.963900   -2.516300    2.007200
H     -3.535000   -2.290900   -0.434400
H     -2.632400   -3.785800   -0.784100
