18
gdb_15895
C      0.030300    1.561000   -0.341200
O      0.592000    0.308900    0.017200
C      0.749500   -0.557400   -1.061400
C      1.345900   -1.966700   -0.741800
C      1.160400   -2.391600    0.711900
C      0.311700   -2.611200   -1.721800
C     -0.480000   -1.293500   -1.647700
O     -1.627300   -0.994000   -1.814500
H      0.667300    2.088000   -1.068700
H     -0.972500    1.444200   -0.767800
H     -0.029800    2.155300    0.573200
H      1.306300   -0.078900   -1.888000
H      2.389000   -2.078000   -1.044400
H      0.113600   -2.305800    1.021800
H      1.470500   -3.432400    0.848200
H      1.751400   -1.761500    1.381400
H      0.707600   -2.794700   -2.725500
H     -0.216500   -3.505300   -1.381800
