18
gdb_5835
C     -0.080700    1.561100   -0.021600
C     -0.001200    0.032100   -0.001400
C      0.617500   -0.472900    1.306900
O     -1.296000   -0.542600   -0.212000
C      0.816200   -0.458200   -1.228400
O      2.119900    0.052300   -1.207800
C      0.850900   -1.973100   -1.313600
O      1.902500   -2.568000   -1.374500
H      0.919200    2.000100    0.011300
H     -0.585000    1.902500   -0.930100
H     -0.645200    1.925200    0.844900
H      0.074800   -0.069600    2.168800
H      0.578800   -1.564900    1.362800
H      1.660600   -0.155600    1.381400
H     -1.874000   -0.240300    0.495800
H      0.269400   -0.112300   -2.123900
H      2.698900   -0.725000   -1.277000
H     -0.123000   -2.491200   -1.326900
