18
gdb_6975
C      0.331500    1.485400   -0.121300
C     -0.021400   -0.001900   -0.016500
O     -1.431800   -0.159600    0.171900
C      0.496700   -0.798500   -1.199200
C      1.538600   -1.563900   -0.882200
C      1.913800   -1.422300    0.572100
C      0.673700   -0.715100    1.174900
O      0.962000    0.203000    2.213500
H      1.412000    1.634800   -0.193900
H     -0.126500    1.918500   -1.019200
H     -0.032600    2.017600    0.760000
H     -1.880800    0.440700   -0.432200
H      0.051100   -0.704200   -2.184200
H      2.081800   -2.202900   -1.570200
H      2.136500   -2.379600    1.058400
H      2.798600   -0.784500    0.702900
H     -0.041900   -1.474600    1.517500
H      1.213400   -0.298300    2.994400
