20
gdb_5858
C      0.090100    1.540900   -0.014000
C      0.042200    0.085600    0.005500
C      0.002800   -1.117800    0.010700
C     -0.026700   -2.575600    0.028000
C     -1.444500   -3.198000    0.034400
C     -1.323700   -4.727500    0.103800
C     -2.290100   -2.660000    1.194400
O     -2.020300   -2.816400   -1.217000
H      1.034500    1.901900   -0.436700
H     -0.721900    1.957700   -0.620500
H     -0.000900    1.960600    0.994200
H      0.496500   -2.964700   -0.854100
H      0.517500   -2.947500    0.905200
H     -0.845900   -5.053100    1.033700
H     -2.315900   -5.190700    0.060400
H     -0.738200   -5.101900   -0.740900
H     -2.377800   -1.573700    1.124300
H     -3.295500   -3.097000    1.167800
H     -1.845900   -2.912700    2.162800
H     -2.932100   -3.125900   -1.226100
