21
gdb_13618
C      2.239200    1.488100    0.266100
C      1.427500    0.203600    0.445100
C      0.025500    0.492600    1.006900
O     -0.734700    1.284400    0.117200
N      1.221000   -0.426800   -0.864700
C      2.329300   -1.106900   -1.521800
C      1.161600   -1.885700   -1.017200
C      1.310600   -2.861200    0.130500
H      3.206400    1.283100   -0.202100
H      1.690300    2.196500   -0.358700
H      2.424200    1.957200    1.237300
H      1.955900   -0.455800    1.152000
H     -0.480900   -0.463600    1.221300
H      0.104100    1.042400    1.951300
H     -0.558000    0.908900   -0.757100
H      2.461900   -0.902600   -2.581400
H      3.259800   -1.213700   -0.964100
H      0.413200   -2.190500   -1.747700
H      2.140200   -2.606800    0.794500
H      0.396300   -2.916200    0.731200
H      1.504500   -3.863000   -0.267200
