16
gdb_5623
C     -0.055000    1.409300    0.007400
N      0.083800   -0.034400   -0.077000
C      0.658100   -0.674900    1.021800
C      1.298300   -0.166200    2.113500
O      1.739100   -1.179100    2.919000
C      1.372300   -2.349700    2.324600
C      0.708500   -2.108400    1.161900
N      0.085400   -2.984400    0.252500
H      0.939300    1.867900    0.044500
H     -0.562200    1.778900   -0.886900
H     -0.613900    1.745900    0.896200
H     -0.775100   -0.494700   -0.354500
H      1.522400    0.832600    2.444500
H      1.641000   -3.253700    2.845500
H      0.267600   -3.957000    0.467700
H      0.389400   -2.803300   -0.699200
