17
gdb_17743
C      0.016700    1.496500    0.005200
C     -0.027000    0.000900    0.124000
C     -1.313100   -0.826300    0.324200
C     -0.333500   -1.957600    0.710600
C      0.585600   -2.138100   -0.514400
C      1.693300   -1.330600    0.047700
C      0.731600   -0.881800    1.174000
N      0.778400   -0.719300   -0.966100
H      1.051000    1.854400   -0.029900
H     -0.478700    1.820200   -0.917000
H     -0.484800    1.974600    0.852700
H     -1.880500   -0.466500    1.188900
H     -1.978500   -0.971300   -0.532100
H     -0.614100   -2.827200    1.301300
H      0.585800   -2.913000   -1.270900
H      2.769200   -1.375000   -0.071000
H      0.939700   -0.623600    2.209300
