17
gdb_18256
O      0.104600    1.431100    0.056400
C      0.041400    0.014100    0.141000
C     -1.396000   -0.525700    0.028100
C     -2.082300   -0.204400   -1.289000
C     -2.542900   -1.292600   -1.910500
C     -2.197000   -2.521500   -1.137700
N     -0.721100   -2.720800   -1.022200
C     -1.466900   -2.054100    0.071300
H      0.009300    1.673300   -0.869300
H      0.666100   -0.470500   -0.619000
H      0.448700   -0.245400    1.124400
H     -1.970600   -0.098000    0.861700
H     -2.164200    0.810200   -1.663500
H     -3.068700   -1.310900   -2.857700
H     -2.838800   -3.395900   -1.139500
H     -0.546600   -3.684300   -0.739700
H     -1.548900   -2.562500    1.026000
