17
gdb_1895
C     -0.029600    1.467300    0.064900
C     -0.002100   -0.036200    0.018400
C      0.616900   -0.960000   -1.075200
C      0.018100   -1.940300   -0.028700
C      0.635700   -1.015200    1.060800
C     -1.230700   -1.009300   -0.028100
O     -2.180400   -1.037000    1.000400
H      0.979700    1.885900    0.144200
H     -0.494900    1.879000   -0.837400
H     -0.608900    1.817200    0.926600
H      0.146900   -0.939100   -2.063400
H      1.706800   -0.948400   -1.149700
H      0.038200   -3.030000   -0.059500
H      1.727400   -1.004700    1.127200
H      0.208200   -1.042100    2.069400
H     -1.804400   -0.989300   -0.959400
H     -1.729200   -1.118600    1.846700
