21
gdb_13817
C     -0.300000    1.509500    0.234000
C      0.303100    0.162200   -0.178200
C      0.939400   -0.557700    0.991500
N      0.051500   -1.248000    1.951100
C      1.013700   -2.034300    1.156800
C      0.372900   -3.055300    0.211900
C      0.485200   -4.471300    0.788800
O     -0.980900   -2.727100   -0.044400
H      0.459500    2.177000    0.657600
H     -0.749700    2.019600   -0.623100
H     -1.078700    1.367400    0.989900
H     -0.461600   -0.478600   -0.623100
H      1.074100    0.317700   -0.944300
H      1.769800   -0.010600    1.440800
H      0.357700   -1.127500    2.910900
H      1.895500   -2.409700    1.673500
H      0.897300   -3.024100   -0.753100
H      1.532200   -4.778500    0.892700
H      0.010400   -4.522400    1.774900
H     -0.021000   -5.181000    0.129500
H     -1.272800   -2.245800    0.747200
