20
gdb_17057
C     -0.027300    1.579600    0.024900
C      0.006100    0.057000    0.207100
C     -1.373700   -0.573300    0.049900
C     -2.050700   -0.778500   -1.351600
C     -1.099600   -1.989000   -1.569600
C     -1.578000   -2.119500   -0.095300
C     -3.003900   -1.808100   -0.659500
O     -4.068100   -1.417400    0.157500
H      0.961400    2.020500    0.185000
H     -0.354800    1.850800   -0.984400
H     -0.719100    2.049200    0.733400
H      0.728300   -0.375500   -0.491800
H      0.379900   -0.179600    1.212200
H     -2.029800   -0.102600    0.795600
H     -2.322000   -0.011100   -2.078800
H     -1.445700   -2.760400   -2.263600
H     -0.045900   -1.769800   -1.731300
H     -1.302200   -2.892900    0.624100
H     -3.410200   -2.574200   -1.324700
H     -3.772300   -0.733600    0.766600
