15
gdb_15955
C     -0.231900   -1.130000   -0.505000
C     -0.098000    0.018300   -0.174900
C      0.079100    1.412200    0.192100
N      0.193200    1.707000    1.653400
C      1.306500    2.667600    1.424800
C      1.468200    2.068900    0.028900
C      2.643200    1.586100   -0.684100
O      1.902300    2.746900   -1.118400
H     -0.354300   -2.147100   -0.784800
H     -0.671400    2.029800   -0.323900
H     -0.644500    2.112900    2.054900
H      1.010300    3.724400    1.375800
H      2.140800    2.560200    2.125000
H      3.637200    1.792000   -0.290600
H      2.555900    0.713000   -1.327400
