18
gdb_10695
C      0.121400    1.306600   -0.315600
N     -0.025300   -0.084900    0.103100
C      0.536700   -0.326200    1.429400
C     -1.365700   -0.580100   -0.041200
C     -1.786900   -1.049200   -1.422200
C     -1.530200   -2.058700   -0.343500
C     -2.382500    0.048100    0.789100
N     -3.139600    0.591200    1.476300
H      1.182800    1.571400   -0.310500
H     -0.258300    1.426300   -1.334000
H     -0.413800    2.015000    0.339200
H      0.035000    0.251100    2.224400
H      0.457800   -1.388900    1.674700
H      1.595700   -0.051900    1.424200
H     -2.809200   -0.864600   -1.729600
H     -1.036100   -0.934600   -2.194600
H     -0.606600   -2.622800   -0.390400
H     -2.374100   -2.574800    0.097900
