17
gdb_8216
C      0.122100    1.423500    0.000300
C     -0.099700   -0.065400    0.049400
N     -0.629000   -0.765700    0.967000
O      0.357800   -0.644500   -1.083800
C      0.256800   -2.061000   -1.145600
C     -1.128200   -2.660200   -1.441800
O     -0.631200   -3.279800   -2.651300
C      0.643000   -2.616600   -2.522500
H      1.189400    1.641900   -0.102800
H     -0.380300    1.849700   -0.873300
H     -0.257200    1.905500    0.902500
H     -0.914300   -0.180200    1.748300
H      0.763400   -2.503100   -0.286600
H     -1.508100   -3.391700   -0.722700
H     -1.899600   -1.908000   -1.646000
H      0.787900   -1.833500   -3.277600
H      1.482500   -3.319700   -2.555900
