17
gdb_20809
C      0.122000    1.539000   -0.173900
C     -0.061200    0.029500    0.061300
C      0.572900   -0.446100    1.325200
C      0.088800   -0.986400    2.475100
C      1.247700   -1.197500    3.279300
C      1.336800   -1.772200    4.656700
N      2.335900   -0.811000    2.655800
O      1.911800   -0.333400    1.413900
H      1.182900    1.797900   -0.216700
H     -0.343800    1.838100   -1.117200
H     -0.335200    2.118900    0.633300
H     -1.125000   -0.223800    0.098400
H      0.368300   -0.525100   -0.782000
H     -0.938100   -1.205800    2.718000
H      0.935300   -2.790600    4.683000
H      2.377400   -1.798200    4.985300
H      0.759100   -1.174000    5.369000
