16
gdb_2097
C     -0.049300    1.540500    0.025100
C      0.054000    0.015100    0.003500
C      0.731500   -0.510700   -1.269500
C      1.025200   -1.995200   -1.103000
O      1.791500   -2.242500    0.086400
C      1.522000   -1.432000    1.138700
N      0.755000   -0.430300    1.213400
H      0.947400    1.992700   -0.009500
H     -0.625100    1.907000   -0.831300
H     -0.536500    1.872000    0.945500
H     -0.966700   -0.392800    0.051600
H      0.103300   -0.352200   -2.152400
H      1.671600    0.030200   -1.433600
H      0.093000   -2.571500   -1.036200
H      1.618100   -2.398800   -1.927200
H      2.094100   -1.760600    2.005100
