20
gdb_14057
C     -0.000800    0.815500   -2.180900
C      0.023600   -0.279700   -1.136400
C      1.270300   -0.629400   -0.313900
C      2.594400    0.087500   -0.468800
C      0.085700    0.021800    0.328100
C     -0.024800    1.355300    1.062700
C     -0.900600    0.552700    2.048800
O     -0.735300   -0.661200    1.282100
H      0.567000    1.696500   -1.867400
H      0.425200    0.471600   -3.130100
H     -1.027800    1.142500   -2.378400
H     -0.593700   -1.142400   -1.376700
H      1.358300   -1.690000   -0.088900
H      2.465400    1.163900   -0.615000
H      3.217400   -0.048500    0.422300
H      3.157400   -0.294900   -1.327500
H      0.908200    1.745200    1.474900
H     -0.539100    2.151200    0.520000
H     -0.500400    0.449600    3.064100
H     -1.952000    0.856900    2.106400
