18
gdb_11112
C      0.334800    1.376500    0.407000
C      0.066000   -0.111800    0.163300
C     -1.328100   -0.387200   -0.399700
C     -1.723700   -1.887500   -0.455600
C     -2.595400   -1.601200    0.803000
N     -2.471500   -0.154300    0.527600
C     -3.966600   -2.115300    0.815100
N     -5.041500   -2.540000    0.825100
H      1.342300    1.536500    0.801600
H      0.242300    1.950300   -0.521300
H     -0.370000    1.803500    1.129300
H      0.804900   -0.506800   -0.546300
H      0.202900   -0.676000    1.096200
H     -1.452000    0.160100   -1.342000
H     -2.321100   -2.152300   -1.327700
H     -0.921500   -2.614100   -0.322400
H     -2.102700   -1.939500    1.724400
H     -2.283000    0.426000    1.338400
