20
gdb_9759
C      0.079400    1.199400    0.359100
O     -0.141600   -0.155400    0.042900
C     -1.509000   -0.561600   -0.177400
C     -2.004700   -0.027500   -1.524900
C     -1.486900   -2.108600   -0.104200
C     -1.894800   -2.476600    1.341900
C     -2.591900   -1.226600    1.820000
C     -2.403300   -0.196700    0.997700
H      1.160600    1.321700    0.467200
H     -0.264400    1.886100   -0.428600
H     -0.398300    1.491700    1.305100
H     -1.349400   -0.371100   -2.331300
H     -3.021000   -0.379400   -1.725800
H     -2.025200    1.066500   -1.545700
H     -2.219200   -2.515600   -0.807900
H     -0.501200   -2.481300   -0.389300
H     -2.541100   -3.360500    1.382500
H     -1.025500   -2.700600    1.974000
H     -3.161900   -1.191600    2.743000
H     -2.802600    0.801400    1.140300
