20
gdb_6715
C     -0.207400    1.507300   -0.031900
C      0.015300   -0.012300    0.005100
C      0.977200   -0.444800   -1.109800
C      0.531900   -0.501800    1.370100
C     -0.439600   -0.276300    2.523900
O      0.029500   -0.944900    3.704900
C      0.517500   -0.195000    4.707900
O      0.961800   -0.663300    5.712500
H      0.723800    2.043800    0.186600
H     -0.546900    1.825900   -1.022600
H     -0.960400    1.837000    0.690800
H     -0.952900   -0.500800   -0.179100
H      1.963700    0.014500   -0.975500
H      1.114300   -1.530900   -1.120400
H      0.602000   -0.142700   -2.092800
H      0.740800   -1.576600    1.317700
H      1.486200   -0.010500    1.603600
H     -0.579200    0.790200    2.737600
H     -1.421400   -0.705700    2.299300
H      0.453900    0.892300    4.500200
