14
gdb_16849
O     -0.041900    0.424900    1.025200
C     -0.030800    1.275900    0.160500
C     -1.325600    1.707700   -0.533900
C     -1.283400    3.070900   -1.178100
O     -0.810500    4.146400   -0.376700
C      0.021000    3.697200   -1.469300
C      1.258400    2.973500   -1.092200
C      1.232100    1.880300   -0.319000
H     -1.535700    0.956600   -1.307900
H     -2.141100    1.638600    0.192500
H     -2.131100    3.324100   -1.815600
H      0.099100    4.413600   -2.283900
H      2.202900    3.378200   -1.445400
H      2.140600    1.385100    0.007900
