19
gdb_15804
C     -0.092000    1.512600   -0.075000
C     -0.098700   -0.017500   -0.105900
C      0.859500   -0.587100   -1.152400
C      0.851900   -2.107100   -1.210600
O      0.129200   -2.805000   -0.534600
N      1.823400   -2.650400   -2.059100
C      1.821200   -2.529000   -3.507100
C      1.589500   -3.847400   -2.829800
H      0.905000    1.903700    0.158000
H     -0.392300    1.933400   -1.041500
H     -0.783300    1.894900    0.682100
H      0.170200   -0.416900    0.877700
H     -1.109000   -0.388200   -0.308100
H      0.611500   -0.202700   -2.151900
H      1.890500   -0.259900   -0.967200
H      0.963900   -2.051700   -3.976800
H      2.778700   -2.308700   -3.971300
H      2.382400   -4.589400   -2.808700
H      0.579100   -4.247100   -2.821400
