15
gdb_3343
C     -0.002000    1.552700   -0.077200
C      1.301700    0.781500    0.026700
O      2.016900    0.903200    1.225800
C      1.781500   -0.184300    2.111900
C      0.294500   -0.315900    2.397900
O     -0.434500   -0.620000    1.214700
C     -0.010400    0.047400    0.061500
H     -0.255000    2.151300    0.790600
H     -0.293400    1.980000   -1.030500
H      1.945100    0.694900   -0.846500
H      2.165800   -1.124800    1.688600
H      2.332600    0.039900    3.029500
H      0.098600   -1.136900    3.094300
H     -0.071600    0.617600    2.852200
H     -0.294300   -0.529800   -0.812400
