17
gdb_19513
O      0.261200    0.173400   -0.608100
C      0.229600    1.328700   -0.251400
N      1.254400    1.987300    0.384700
C      2.672500    1.954700    0.122400
C      3.115800    1.635700   -1.296300
C      2.252700    2.548800   -2.201000
C      1.866800    3.769100   -1.328300
C      1.896700    3.254400    0.103400
H     -0.675300    1.963400   -0.334600
H      3.304300    1.674800    0.960500
H      4.180500    1.881500   -1.384300
H      2.994600    0.578100   -1.543200
H      2.782300    2.848500   -3.108100
H      1.357600    2.011500   -2.523700
H      2.613100    4.568100   -1.413100
H      0.902800    4.202500   -1.612300
H      1.935800    3.961400    0.927700
