18
gdb_19086
C     -0.033900    1.550600    0.037500
C      1.285400    0.820500    0.004600
C      2.158900    0.706400    1.256500
C      2.198200   -0.723500    1.788300
O      1.501700   -0.978100    3.015100
C      0.936400   -1.479500    1.797000
C     -0.311300   -0.773600    1.273600
C     -0.012700    0.042700    0.013500
H     -0.317600    2.034700    0.968100
H     -0.356900    2.079500   -0.852900
H      1.828800    0.847000   -0.934700
H      3.171700    1.057000    1.039600
H      1.769900    1.343900    2.057200
H      3.139700   -1.263900    1.696800
H      0.967900   -2.565200    1.711800
H     -1.100300   -1.502600    1.069100
H     -0.681900   -0.125100    2.074100
H     -0.301900   -0.429600   -0.920000
