22
gdb_10730
C     -0.140200    1.617800    0.005400
C     -0.264800    0.108200   -0.219500
C      0.620300   -0.466300   -1.318600
C      1.096200    0.374400   -2.429400
O      1.966400    0.042400   -1.342200
C      0.549100   -1.976200   -1.557600
C      0.986400   -2.776700   -0.321400
C     -0.830400   -2.421600   -2.064900
H      0.909200    1.904100    0.113300
H     -0.569600    2.192100   -0.821400
H     -0.671200    1.911000    0.915500
H     -0.014700   -0.410000    0.714200
H     -1.307600   -0.151000   -0.438400
H      1.344300   -0.091500   -3.383100
H      0.815500    1.423200   -2.494100
H      1.281500   -2.178000   -2.349100
H      1.079100   -3.839300   -0.567800
H      1.956700   -2.427100    0.043400
H      0.262300   -2.694000    0.496100
H     -1.140400   -1.845200   -2.943000
H     -0.810700   -3.479000   -2.347300
H     -1.601700   -2.304000   -1.296300
