17
gdb_7520
C      0.054800    1.440600   -0.307400
C      0.042700   -0.009500    0.100600
O      1.295700   -0.709700    0.123000
C      0.593600   -0.550700    1.358700
C      1.259500    0.305400    2.411400
C     -0.029700   -1.850300    1.879300
C      0.933400   -2.705000    2.574200
N      1.698500   -3.367400    3.131600
H      0.865200    1.995600    0.167300
H      0.182100    1.519300   -1.392000
H     -0.897100    1.916300   -0.047700
H     -0.762800   -0.588100   -0.359600
H      1.715300    1.192400    1.971500
H      0.534100    0.622100    3.168800
H      2.045800   -0.264000    2.916600
H     -0.849200   -1.620200    2.570900
H     -0.453600   -2.410700    1.040800
