18
gdb_11731
C      0.087700    1.507600   -0.175900
C     -0.098100    0.004000    0.072600
C      0.658000   -0.483800    1.277600
C      2.079800   -0.916700    1.258500
C      1.027500   -1.952200    1.654300
C      0.563400   -1.678200    3.048300
O      0.319300   -2.375300    3.992700
C      0.264400   -0.185500    2.739700
H      1.141600    1.751600   -0.343300
H     -0.478900    1.831800   -1.053800
H     -0.258200    2.095300    0.681000
H     -1.165800   -0.216800    0.199600
H      0.231500   -0.558100   -0.809900
H      2.513100   -1.100400    0.279600
H      2.790500   -0.553100    1.996100
H      0.915500   -2.876500    1.100000
H      0.843800    0.576700    3.269000
H     -0.803000    0.012400    2.880800
