12
gdb_726
C     -0.021300    1.504900    0.061400
C     -0.002900    0.016400   -0.065500
C     -0.062600   -0.817900   -1.165500
C      0.000100   -2.125800   -0.638000
N      0.090500   -2.122700    0.687600
N      0.087100   -0.811900    1.008500
H      0.900000    1.887500    0.516000
H     -0.119700    1.962600   -0.924900
H     -0.860500    1.851900    0.675200
H     -0.140000   -0.516200   -2.197700
H     -0.018000   -3.066200   -1.169600
H      0.148400   -0.550800    1.978300
