15
gdb_2604
O      0.155100    1.298200   -0.281700
C      0.049600   -0.053400    0.112100
C     -1.381400   -0.562700    0.082200
C     -1.977400   -1.089900   -1.221800
C     -1.651800   -2.047100   -0.128000
C     -2.325400    0.164100    0.956800
O     -2.039300    1.153700    1.595000
H     -0.340100    1.799900    0.378700
H      0.661700   -0.636400   -0.584800
H      0.460600   -0.211100    1.121500
H     -3.020800   -0.874800   -1.426700
H     -1.328500   -1.036000   -2.088400
H     -0.776900   -2.680100   -0.229400
H     -2.467700   -2.498100    0.427400
H     -3.357300   -0.254800    0.991300
