20
gdb_9283
C      0.005400    1.548500   -0.075900
C     -0.024500    0.020200    0.023400
C     -1.439600   -0.585200    0.081200
C     -2.243100   -0.355700   -1.204600
C     -1.331300   -2.076400    0.406400
O     -2.631500   -2.636200    0.638600
C     -2.982300   -3.751400   -0.025600
O     -4.034300   -4.294800    0.129600
H      1.034900    1.918300   -0.052300
H     -0.450400    1.907700   -1.003100
H     -0.532500    2.008500    0.760300
H      0.517300   -0.412700   -0.829200
H      0.528000   -0.285900    0.921500
H     -1.978600   -0.116700    0.916200
H     -1.725000   -0.783700   -2.072000
H     -3.230900   -0.818900   -1.136200
H     -2.391900    0.709400   -1.399000
H     -0.835300   -2.616400   -0.412700
H     -0.744100   -2.229800    1.318500
H     -2.195300   -4.099900   -0.723800
