15
gdb_5235
C     -0.135400    1.497900    0.011800
C      0.000500   -0.011100    0.003400
O     -1.331600   -0.565500    0.011400
C     -1.388600   -1.885600    0.006000
N     -0.427700   -2.755100   -0.005500
C     -1.105600   -3.976500   -0.005400
C     -2.435700   -3.757700    0.006000
O     -2.636100   -2.390100    0.013700
H      0.858000    1.955900    0.006000
H     -0.681800    1.845400   -0.869200
H     -0.667500    1.836800    0.904900
H      0.525900   -0.374000   -0.886100
H      0.540000   -0.382600    0.880800
H     -0.574800   -4.915100   -0.013800
H     -3.320300   -4.368900    0.010400
