15
gdb_2444
C     -0.033900    1.554800   -0.050300
C      1.515200    1.431400   -0.025400
C      1.321300    0.120500    0.790200
C     -0.003300    0.001300   -0.017500
O      0.244400   -0.468900   -1.344300
C      1.541600   -0.127700   -1.786700
O      1.962300    1.149000   -1.353300
H     -0.436600    1.987500    0.869300
H     -0.476900    2.020400   -0.931800
H      2.137500    2.241000    0.357900
H      2.068300   -0.672900    0.731100
H      1.114500    0.345900    1.838100
H     -0.846600   -0.569300    0.373400
H      2.260800   -0.889400   -1.445900
H      1.523200   -0.114100   -2.879700
