17
gdb_15981
C      0.094400    1.378800   -0.017000
N      0.283200   -0.063800   -0.065700
C      0.569300   -0.683000    0.981500
O      0.758800   -0.235600    2.288500
C      1.035100   -1.593500    2.756500
C      0.832200   -2.105300    1.333900
C      0.126000   -3.324000    0.811900
C      1.590900   -3.123000    0.530700
H      0.803300    1.857900   -0.701700
H     -0.911000    1.622600   -0.378200
H      0.223200    1.813400    0.981100
H      2.047200   -1.667900    3.164600
H      0.297600   -1.908100    3.500500
H     -0.158700   -4.085300    1.530800
H     -0.579500   -3.168400    0.003400
H      1.887400   -2.829800   -0.470300
H      2.305000   -3.747200    1.057700
