15
gdb_20055
C      0.336500    1.477100    0.289800
O      1.263400    0.417200    0.022200
C     -0.121200    0.096500    0.104800
C     -0.533200   -0.798000    1.251200
C      0.139600   -2.204200    1.222100
N      0.927300   -2.276700    2.463100
C      0.736300   -1.177200    3.056100
O     -0.086300   -0.242900    2.511700
H      0.384000    1.885700    1.295200
H      0.207900    2.197300   -0.516500
H     -0.582900   -0.177300   -0.846500
H     -1.626500   -0.856600    1.285500
H     -0.591400   -3.017800    1.196200
H      0.802400   -2.319200    0.358600
H      1.171900   -0.885400    4.005000
