18
gdb_14530
O      0.015800    1.405400    0.316500
C      0.008900    0.033300    0.016800
C      0.952800   -0.542300   -1.000400
C      1.115300   -0.869500    0.479200
C     -1.420400   -0.448100    0.085200
C     -2.363700   -0.064000   -1.077300
C     -2.506000   -1.585700   -1.271700
O     -1.546900   -1.853800   -0.221600
H      0.924900    1.719500    0.311400
H      0.595500   -1.334300   -1.648700
H      1.673800    0.130000   -1.455500
H      1.944600   -0.416000    1.014200
H      0.859000   -1.872400    0.801400
H     -1.821200   -0.218200    1.081700
H     -3.271400    0.471100   -0.797800
H     -1.867500    0.462100   -1.893800
H     -3.491800   -2.001800   -1.030000
H     -2.177200   -1.990600   -2.235900
