13
gdb_9452
N      0.046700    1.512100    0.130000
C      0.012700    0.061900    0.042400
C     -1.404700   -0.552600   -0.138800
O     -1.014400   -1.132400   -1.421400
C      0.244500   -0.596500   -1.364500
O      1.100200   -0.636400   -2.184800
C      0.821200   -0.546600    1.084100
C      1.503700   -1.064000    1.926200
H      1.007200    1.827000    0.223200
H     -0.322700    1.926500   -0.721700
H     -1.692800   -1.325500    0.573200
H     -2.196300    0.188400   -0.266600
H      2.107500   -1.520000    2.672200
