11
gdb_3911
O      0.054500   -0.049400   -0.000700
C      0.008000    1.163100    0.008800
C      1.194800    2.007400    0.002900
C      1.378200    3.384700    0.011400
C      2.772000    3.555700   -0.001700
N      3.413500    2.380800   -0.017500
N      2.443900    1.468000   -0.014400
H     -0.955300    1.712500    0.023300
H      0.609400    4.140300    0.025200
H      3.340600    4.473300   -0.000500
H      2.657600    0.482800   -0.024200
