20
gdb_6756
C     -0.013300    1.538000   -0.055700
C     -0.008600   -0.000100    0.052100
C      0.777500   -0.471000    1.291800
C     -1.372900   -0.530900    0.057700
C     -2.503400   -0.947700    0.079300
C     -3.858400   -1.485600    0.095300
C     -3.886600   -3.012600   -0.031400
O     -5.248400   -3.406400   -0.003400
H      1.012100    1.919000   -0.102300
H     -0.546600    1.867800   -0.951100
H     -0.505900    1.982900    0.814500
H      0.503600   -0.394400   -0.837000
H      0.313500   -0.092500    2.208000
H      0.801700   -1.562300    1.351200
H      1.808000   -0.103300    1.251500
H     -4.372900   -1.207800    1.023500
H     -4.451400   -1.061200   -0.724300
H     -3.395200   -3.310000   -0.969800
H     -3.316100   -3.458000    0.797400
H     -5.287300   -4.363700   -0.083200
