20
gdb_14772
C      0.069100    1.498400    0.123600
C     -0.027100   -0.027000    0.044100
C     -1.467900   -0.516800    0.005100
O     -1.466400   -1.929000   -0.072900
C     -2.757300   -2.486900   -0.118400
C     -2.615200   -4.004400   -0.242600
C     -3.935700   -4.716500   -0.063300
O     -4.415200   -5.491600   -0.849300
H      1.112700    1.824400    0.151300
H     -0.404000    1.974600   -0.742300
H     -0.422800    1.884200    1.023400
H      0.488900   -0.395300   -0.849900
H      0.473100   -0.485600    0.904700
H     -2.011700   -0.184900    0.906900
H     -1.996700   -0.087600   -0.863700
H     -3.323800   -2.229800    0.794400
H     -3.326600   -2.085500   -0.973500
H     -2.177800   -4.284600   -1.203400
H     -1.941100   -4.339700    0.558100
H     -4.462000   -4.472600    0.890300
