24
gdb_14995
C      0.105400    1.571100    0.053500
C      0.005600    0.042600    0.003900
C     -1.428200   -0.513500   -0.018900
C     -2.201700   -0.120200   -1.290500
C     -3.621400   -0.706800   -1.312400
C     -3.606100   -2.231500   -1.142100
C     -2.844700   -2.637000    0.126800
C     -1.428300   -2.044400    0.144200
H      1.148800    1.892800    0.131000
H     -0.314500    2.039900   -0.841700
H     -0.430600    1.973900    0.920600
H      0.547300   -0.331800   -0.876100
H      0.525800   -0.374700    0.876200
H     -1.966300   -0.087600    0.843600
H     -2.252400    0.969700   -1.386200
H     -1.645400   -0.483100   -2.167900
H     -4.208300   -0.259000   -0.498000
H     -4.127900   -0.432100   -2.244900
H     -4.629400   -2.623100   -1.114600
H     -3.120900   -2.688100   -2.016300
H     -3.396000   -2.280300    1.008100
H     -2.797900   -3.728900    0.212200
H     -0.840300   -2.487800   -0.673300
H     -0.915300   -2.318100    1.074500
