18
gdb_16889
C      0.058500    1.526300    0.008400
C     -0.029500    0.027600   -0.019000
C     -0.026800   -0.677800   -1.156200
C     -0.083500   -2.158600   -1.156500
O      0.873700   -2.865200   -0.323200
C     -0.494400   -2.853700    0.074800
C     -0.857100   -2.011600    1.276100
C     -0.073000   -0.685000    1.316000
H      0.941000    1.858600    0.571000
H      0.119200    1.949000   -0.998000
H     -0.812200    1.963300    0.514500
H      0.021700   -0.175900   -2.118600
H     -0.252700   -2.643900   -2.115600
H     -1.001400   -3.816200   -0.009800
H     -1.935600   -1.810500    1.225500
H     -0.685000   -2.572100    2.201700
H      0.956300   -0.891100    1.634800
H     -0.504100   -0.027900    2.079800
