24
gdb_10779
C      0.050700    1.646100   -0.237900
C      0.174600    0.126600   -0.129600
C      1.111600   -0.580500   -1.166500
C      1.447200    0.095400   -2.490100
C      2.205800   -0.741000   -0.057600
C      3.394300    0.218000   -0.119300
C      1.100200   -0.426600    1.006300
C      1.422600    0.429300    2.224700
H      1.019300    2.153700   -0.268700
H     -0.494000    1.927300   -1.145600
H     -0.503200    2.052000    0.615500
H     -0.838400   -0.290300   -0.105400
H      0.696200   -1.570900   -1.384900
H      1.869200    1.095400   -2.355200
H      2.175600   -0.495700   -3.056800
H      0.552400    0.197100   -3.114600
H      2.602200   -1.759800    0.016600
H      3.094500    1.267300   -0.195200
H      4.018100    0.120900    0.775900
H      4.027300   -0.003900   -0.985300
H      0.681900   -1.376700    1.357700
H      1.847000    1.400500    1.954700
H      0.521400    0.617600    2.819300
H      2.144400   -0.075600    2.876700
