24
gdb_6857
C      0.026300    1.531200    0.010000
C     -0.057700   -0.004400    0.002600
C     -1.545700   -0.406700    0.014600
C      0.647300   -0.542600   -1.266500
C      0.821300   -2.069100   -1.283000
C      1.552300   -2.561200   -0.026500
C      0.845500   -2.082700    1.248900
C      0.671400   -0.556100    1.252100
H      1.067800    1.871700    0.001900
H     -0.471500    1.958900   -0.867800
H     -0.454500    1.949400    0.901800
H     -2.062700   -0.001600   -0.862600
H     -1.692800   -1.490000    0.010200
H     -2.045800   -0.011100    0.905900
H      0.098300   -0.213800   -2.158000
H      1.641900   -0.078900   -1.330400
H     -0.158900   -2.558600   -1.349700
H      1.371200   -2.366400   -2.183400
H      1.630500   -3.654300   -0.033200
H      2.581500   -2.174900   -0.034300
H     -0.133300   -2.573000    1.329000
H      1.412500   -2.389600    2.135400
H      1.667100   -0.093000    1.301900
H      0.139600   -0.237000    2.157400
