15
gdb_14902
C     -0.046500   -1.209600   -0.052200
C      0.017500   -0.010800   -0.015100
C      0.045900    1.450700    0.057300
C     -0.721600    1.962700    1.293200
C     -0.478600    3.458600    1.427600
O      0.926100    3.755500    1.467900
C      1.719800    2.961700    0.712700
N      1.435200    1.934200    0.031900
H     -0.086600   -2.269800   -0.097600
H     -0.449100    1.836900   -0.846400
H     -1.792100    1.756600    1.204600
H     -0.354100    1.443300    2.183900
H     -0.920300    4.005100    0.584300
H     -0.895200    3.861700    2.353300
H      2.744400    3.327900    0.749800
