15
gdb_20938
C     -0.062100    1.544200    0.000500
C     -0.038700    0.023600    0.103800
N     -1.358100   -0.532000   -0.164300
C     -1.525900   -1.895400   -0.080900
C     -0.646400   -2.936700   -0.117000
O     -1.358900   -4.079100   -0.055200
N     -2.704300   -3.716900    0.033600
N     -2.783300   -2.454000    0.016700
H      0.935300    1.954400    0.178700
H     -0.397500    1.861400   -0.990800
H     -0.737900    1.978500    0.745900
H      0.656700   -0.385900   -0.640000
H      0.338800   -0.285600    1.093300
H     -2.125200   -0.023400    0.254300
H      0.422700   -3.025900   -0.183200
