17
gdb_17245
C      0.035900    1.288500   -0.265300
O     -0.105100   -0.023900    0.258400
C     -1.377900   -0.521300    0.159000
C     -2.595800   -0.261400    1.033300
N     -3.192000   -1.543200    0.478600
C     -3.435200   -1.170800   -0.977500
C     -1.935000   -1.106200   -1.172600
C     -1.761100   -1.957400    0.060500
H      1.083700    1.569200   -0.140800
H     -0.226900    1.323800   -1.331200
H     -0.593200    2.008800    0.275200
H     -2.378400   -0.392800    2.096600
H     -3.214300    0.630800    0.883800
H     -3.905500   -2.014000   -1.491300
H     -4.043300   -0.269700   -1.119200
H     -1.328300   -1.101300   -2.070100
H     -1.277600   -2.896900    0.285700
