14
gdb_12993
C     -0.125700    1.525000    0.022400
C      0.131900    0.051300    0.017600
O     -0.694400   -0.799700    0.847200
C      0.714200   -0.790000    1.069200
C      1.395300   -1.957100    0.389500
O      1.062500   -1.843000   -1.005800
C      0.435800   -0.665500   -1.283100
O      0.196300   -0.300000   -2.396300
H      0.754100    2.071800   -0.329700
H     -0.954400    1.758700   -0.651800
H     -0.378500    1.863200    1.029500
H      1.060300   -0.410700    2.026100
H      2.484500   -1.912300    0.497800
H      1.033200   -2.923900    0.750300
