17
gdb_13602
C     -0.055100    1.448900   -0.162500
N     -0.113300   -0.000100   -0.172100
C     -1.193200   -0.700100    0.265400
O     -2.198800   -0.144800    0.715500
C     -1.102200   -2.178100    0.147700
C     -1.757100   -3.008100    1.257200
C     -2.429600   -2.924800   -0.070300
O     -3.610800   -2.239000   -0.264100
H      0.762000    1.809800    0.471800
H      0.082900    1.847300   -1.173600
H     -1.002700    1.810100    0.237400
H      0.680900   -0.514200   -0.514900
H     -0.211800   -2.581800   -0.324100
H     -1.257600   -3.925200    1.549400
H     -2.197100   -2.434700    2.065900
H     -2.371900   -3.793200   -0.719600
H     -3.492700   -1.366100    0.155800
