14
gdb_16259
O     -0.037300    0.032500   -0.068500
C     -0.018700    1.220500    0.053500
C     -1.134500    2.292000    0.175200
C     -0.050800    3.358400   -0.023700
C      0.947000    3.258600    1.064700
C      1.072100    2.261300   -0.100000
C      2.241900    2.165100   -0.898300
C      3.224500    2.062600   -1.585100
H     -1.828400    2.191700   -0.664100
H     -1.702700    2.335000    1.109000
H     -0.123800    4.212200   -0.683100
H      1.744500    3.993300    1.073300
H      0.656100    2.895300    2.046700
H      4.090100    1.967100   -2.192500
