19
gdb_6187
C     -0.043500    1.569300   -0.016900
C     -0.002200    0.037800   -0.013200
C     -1.428200   -0.536700    0.074000
C      0.770700   -0.534000   -1.238300
C      1.502700   -1.775400   -0.706800
C      1.635200   -1.524900    0.799200
O      2.306600   -2.146200    1.593300
N      0.826300   -0.457400    1.087800
H      0.968700    1.983100   -0.023200
H     -0.574600    1.936500   -0.901000
H     -0.566100    1.954100    0.866100
H     -2.046800   -0.171900   -0.752700
H     -1.414600   -1.630300    0.036600
H     -1.910800   -0.239200    1.011200
H      0.096400   -0.746000   -2.071400
H      1.496900    0.208900   -1.582200
H      0.925200   -2.696300   -0.844400
H      2.484100   -1.942900   -1.154100
H      0.651600   -0.210700    2.050500
