14
gdb_17050
C      0.161200    1.300800    0.160700
O     -0.307700    0.033500   -0.260000
C      0.439300   -0.517200   -1.284500
C      1.758000   -1.289400   -0.920200
O      0.917700   -2.351200   -0.308400
C      0.153000   -2.015400   -1.539100
C      1.546700   -2.106900   -2.219800
O      2.131200   -2.650300   -3.096400
H      1.169200    1.238400    0.594400
H      0.181300    2.019800   -0.672000
H     -0.531900    1.658700    0.924100
H      0.497000    0.138000   -2.167900
H      2.651900   -0.977100   -0.385800
H     -0.792000   -2.525300   -1.708300
