14
gdb_902
C     -0.048700    1.450200   -0.004800
N     -0.033000    0.005000    0.005500
C     -0.014700   -0.800400   -1.096700
C      0.070400   -2.113900   -0.683100
C      0.108200   -2.089700    0.737300
O      0.183300   -3.149800    1.595900
C      0.046600   -0.775300    1.142500
H      0.920900    1.867600    0.291300
H     -0.283700    1.798400   -1.012600
H     -0.813900    1.831300    0.678900
H     -0.062700   -0.377200   -2.087600
H      0.089100   -2.985500   -1.320500
H      0.218600   -3.956700    1.074900
H      0.050400   -0.341400    2.128100
