18
gdb_17062
C      0.038100    1.321600   -0.201500
O     -0.041700    0.038200    0.377000
C     -1.291300   -0.566900    0.199600
C     -1.580500   -1.374300   -1.115000
C     -0.540000   -2.414600   -0.607700
C     -1.383900   -2.046200    0.652300
C     -2.622800   -2.169600   -0.265400
O     -3.795000   -1.543300    0.194800
H      1.020000    1.731000    0.047800
H     -0.064200    1.287900   -1.296700
H     -0.738500    1.993700    0.195400
H     -2.096700    0.094400    0.533800
H     -1.704000   -0.996000   -2.131300
H     -0.644100   -3.436200   -0.984100
H      0.496300   -2.085800   -0.593900
H     -1.275700   -2.432200    1.665900
H     -2.823400   -3.186100   -0.627300
H     -4.435400   -1.543000   -0.523100
