19
gdb_10914
C     -0.260100    1.540600    0.066900
C      0.059100    0.057200    0.023400
C      1.143800   -0.477700   -0.968400
O      1.925700    0.443600   -1.702100
C      1.864900   -1.044700    0.247800
C      2.462200   -2.417500    0.332300
C      2.146600    0.046500    1.200600
N      0.788100   -0.536100    1.206500
H      0.637000    2.162600    0.030400
H     -0.888300    1.819100   -0.786700
H     -0.813100    1.779300    0.981100
H     -0.868700   -0.513100   -0.085700
H      0.749900   -1.265900   -1.623000
H      1.420600    0.723800   -2.472100
H      3.394500   -2.468500   -0.242100
H      2.688300   -2.677300    1.370400
H      1.779100   -3.176300   -0.065100
H      2.709500   -0.215800    2.091600
H      2.311600    1.058300    0.845800
