18
gdb_16532
C     -0.549400    1.423600   -0.141300
C     -0.065100   -0.010500    0.007200
C      1.153100   -0.473700   -0.886900
O      1.835100    0.496500   -1.629700
C      1.896300   -0.926000    0.400000
O      2.742600    0.148800    0.878100
C      1.730000    0.569000    1.835800
C      0.713700   -0.444400    1.287700
H      0.277700    2.138500   -0.120600
H     -1.058100    1.557100   -1.101000
H     -1.254000    1.689600    0.654400
H     -0.906000   -0.695100   -0.145300
H      0.890400   -1.293600   -1.562400
H      2.450700    0.908600   -1.004000
H      2.394700   -1.897400    0.439400
H      2.063000    0.361400    2.859800
H      1.492100    1.634300    1.746800
H      0.192000   -1.068600    2.011500
