15
gdb_14016
O      0.219300    0.114300   -0.546400
C      0.123500    1.224000   -0.085800
N      1.139600    1.895000    0.578200
C      2.535700    1.852400    0.187100
C      1.761200    3.129700    0.179900
C      1.421600    4.052900   -0.992800
O      1.631400    5.206300   -0.151900
C      1.893900    4.397600    1.017300
H     -0.818800    1.803900   -0.084600
H      3.246600    1.655600    0.985300
H      2.765200    1.384500   -0.767600
H      2.113500    4.024600   -1.843000
H      0.390500    3.992900   -1.363500
H      1.126300    4.519300    1.791400
H      2.883300    4.596900    1.445400
