20
gdb_11855
C     -0.372600    1.396200   -0.139700
C     -0.058500   -0.100200   -0.060500
C      0.970300   -0.532000   -1.090100
C      1.165600   -2.046500   -1.336200
C      0.717400   -1.718300   -2.754500
C      1.284200   -2.155700   -4.064900
C     -0.163700   -2.465700   -3.697400
O      0.500600   -0.338900   -2.455100
H      0.519000    1.999900    0.063800
H     -0.732400    1.655600   -1.139300
H     -1.141000    1.679600    0.585600
H      0.322800   -0.360400    0.936300
H     -0.973900   -0.684900   -0.214500
H      1.911600    0.014900   -0.939400
H      2.186100   -2.419800   -1.233200
H      0.483600   -2.686700   -0.770700
H      1.452800   -1.385700   -4.810100
H      2.004000   -2.968100   -4.077400
H     -0.434000   -3.489600   -3.458800
H     -0.936800   -1.897400   -4.203800
