17
gdb_17472
O     -0.064500    1.378700   -0.076600
C     -0.036000   -0.016900    0.013900
C     -0.506400   -0.827300   -1.162200
C     -1.337400   -0.780000    0.109900
C     -1.137700   -1.894400    1.111900
N     -0.119200   -2.896600    0.722900
C      0.246300   -1.811600    1.656200
C      0.961700   -0.629700    1.012600
H      0.572000    1.645300   -0.748400
H     -0.893600   -0.256800   -2.000300
H     -0.009000   -1.758200   -1.404800
H     -2.284800   -0.255500    0.095400
H     -1.978000   -2.214400    1.718000
H     -0.270600   -3.754100    1.248100
H      0.479300   -2.071900    2.683900
H      1.910500   -0.921500    0.549600
H      1.174300    0.129400    1.772500
