19
gdb_20019
C     -0.140400    1.532500   -0.099800
C     -0.357600    0.020400   -0.223500
C      0.565700   -0.599700   -1.249900
N      1.941300   -0.897200   -0.822900
C      1.055500   -2.007400   -1.215300
C      0.696000   -2.992200   -0.152500
C     -0.146200   -4.158800   -0.446700
O      1.265700   -4.299900   -0.294700
H      0.890000    1.747500    0.199700
H     -0.326100    2.039500   -1.053500
H     -0.810500    1.970700    0.645900
H     -0.192300   -0.453200    0.749100
H     -1.397400   -0.188300   -0.506700
H      0.445000   -0.185300   -2.252200
H      2.611300   -0.695000   -1.559000
H      1.233400   -2.482600   -2.179300
H      0.716500   -2.608600    0.866100
H     -0.753300   -4.601600    0.342000
H     -0.524600   -4.306700   -1.458000
