18
gdb_13006
C     -0.075800    1.481900    0.004100
C      0.063300   -0.020600   -0.001000
C     -0.807000   -0.853700    0.914400
C      0.698200   -0.808900    1.124700
C      1.434400   -1.933000    0.469600
C      1.300500   -1.898400   -0.857200
C      0.499600   -0.691600   -1.316200
O     -0.561800   -0.992800   -2.214100
H      0.867600    1.968500   -0.269500
H     -0.835700    1.799800   -0.719000
H     -0.372100    1.858000    0.988500
H     -1.433400   -0.305100    1.611100
H     -1.234100   -1.792000    0.571500
H      1.093400   -0.330200    2.014100
H      1.964900   -2.693100    1.033100
H      1.679900   -2.628800   -1.562300
H      1.133800   -0.000700   -1.888100
H     -1.181300   -1.561000   -1.742600
