17
gdb_304
C     -0.196200    1.466300   -0.049200
N      0.017400    0.033200    0.071400
C      1.357600   -0.483000   -0.193300
C      0.789900   -0.524200    1.189300
C      1.388300    0.372500    2.258500
C      0.232200   -1.830300    1.722100
H      0.680400    2.088400    0.189300
H     -0.489000    1.688800   -1.080800
H     -1.019700    1.770000    0.605700
H      1.414400   -1.381900   -0.803700
H      2.152000    0.239600   -0.382300
H      1.845800    1.275100    1.848500
H      0.626300    0.676400    2.986200
H      2.165700   -0.169200    2.807900
H      1.020100   -2.431300    2.190500
H     -0.540200   -1.644600    2.477700
H     -0.219300   -2.411500    0.914900
