15
gdb_7891
C     -0.098400    1.547800   -0.011300
C      0.027500    0.021700   -0.019500
N      0.796400   -0.487400   -1.155500
C      1.754300   -1.161000   -0.665400
C      2.825500   -1.884800   -1.397000
O      1.833300   -1.247400    0.717600
C      0.763100   -0.509000    1.210500
O      0.556800   -0.372300    2.375100
H      0.888900    2.018100   -0.015500
H     -0.642000    1.879700   -0.898400
H     -0.635700    1.870500    0.884000
H     -0.977500   -0.419400   -0.035700
H      3.808700   -1.502900   -1.104600
H      2.802400   -2.950000   -1.146400
H      2.683200   -1.755500   -2.469600
