13
gdb_2676
O     -0.081300    1.445400    0.010600
C      0.047900    0.036500    0.001900
C     -1.377100   -0.530300    0.012300
C     -1.413900   -1.982300    0.005100
C     -1.438700   -3.190200   -0.001300
C     -1.431900   -4.629500   -0.009400
O     -2.423300   -5.322800   -0.003400
H      0.798800    1.832600    0.004000
H      0.577200   -0.322800   -0.893100
H      0.593900   -0.332200    0.882800
H     -1.902700   -0.149200    0.896500
H     -1.919200   -0.140100   -0.858000
H     -0.416400   -5.076200   -0.022000
