18
gdb_16742
O     -0.635100    0.579500    0.021800
C     -0.108900    1.662200    0.053100
C      1.385300    1.894400   -0.003200
C      1.796500    2.777700   -1.227200
C      2.212600    4.133200   -0.676800
C      1.216900    4.889200    0.167200
C      2.281800    4.051400    0.830100
C      1.911000    2.642400    1.266600
H     -0.727800    2.587400    0.128500
H      1.833700    0.901300   -0.077400
H      2.641800    2.308300   -1.740000
H      0.988200    2.852500   -1.964900
H      2.940400    4.705800   -1.241100
H      1.328500    5.966700    0.220500
H      0.183200    4.558300    0.196800
H      3.061000    4.563300    1.383900
H      1.173900    2.633000    2.078800
H      2.797300    2.124500    1.646100
