19
gdb_6210
C     -0.234000    1.444900    0.111000
C     -0.020000   -0.022600   -0.044200
N     -0.193500   -0.698500   -1.107100
C      0.140400   -2.086300   -0.773800
C      0.552800   -2.075100    0.730900
C     -0.394600   -2.876100    1.619100
C      2.014100   -2.452400    0.955600
O      0.400500   -0.662500    1.079800
H      0.693900    1.932600    0.426100
H     -0.568000    1.868900   -0.835300
H     -0.981900    1.639500    0.886200
H     -0.724000   -2.735500   -0.956600
H      0.952400   -2.443200   -1.418300
H     -0.326500   -3.942600    1.381000
H     -0.147000   -2.742900    2.676400
H     -1.429000   -2.556100    1.463200
H      2.669400   -1.835500    0.333800
H      2.298400   -2.312400    2.002700
H      2.179500   -3.501900    0.691000
