16
gdb_10276
C      0.060200    1.452300   -0.060300
N     -0.094200    0.022800    0.091300
C     -1.217700   -0.655200    0.187100
N     -2.396200   -0.056300    0.152300
H     -2.408200    0.950300    0.049100
C     -3.708000   -0.701000    0.248500
C     -0.933400   -2.239800    0.344800
O      0.289000   -2.445400    0.337400
O     -1.923400   -2.961700    0.443300
H      1.122700    1.691000   -0.110200
H     -0.413900    1.811300   -0.982900
H     -0.371900    1.994900    0.790400
H      0.686000   -0.648200    0.142800
H     -4.247100   -0.306500    1.115300
H     -4.287200   -0.489300   -0.655400
H     -3.539500   -1.772200    0.355500
