18
gdb_8338
O      0.715000    0.536600   -0.920200
C     -0.008100   -0.263100   -0.023700
C      0.182400   -0.099000    1.508400
C     -1.328500   -0.392700    1.675900
C     -1.790600   -1.767100    2.208100
O     -2.574300   -1.152100    3.249500
C     -2.191300    0.169400    2.817100
C     -1.530200   -0.036500    0.182800
H      0.566700    1.458900   -0.685100
H      0.190300   -1.295100   -0.328800
H      0.898200   -0.747300    2.020700
H      0.408900    0.944500    1.760900
H     -2.411800   -2.358200    1.521600
H     -0.998500   -2.409800    2.615500
H     -1.644300    0.716100    3.597300
H     -3.057600    0.767700    2.503400
H     -1.783300    1.024500    0.064000
H     -2.233900   -0.632900   -0.403800
