14
gdb_20656
C     -0.031800    1.547100    0.027000
C      0.003900    0.051400   -0.008900
C     -0.038700   -0.777800   -1.094800
N      0.020800   -2.072800   -0.626400
C      0.003800   -3.227200   -1.419800
O      0.055800   -4.349400   -1.009400
N      0.101100   -2.117700    0.731300
C      0.090600   -0.852400    1.097300
H      0.861800    1.957100    0.510100
H     -0.087100    1.965800   -0.981100
H     -0.898400    1.913500    0.588300
H     -0.105200   -0.569400   -2.151400
H     -0.065300   -2.953100   -2.489400
H      0.145700   -0.602500    2.148500
