17
gdb_6446
C     -0.045100    1.517000    0.155400
N     -0.037500    0.072600    0.144400
C     -1.264200   -0.642700    0.524900
C     -0.392700   -1.698400    1.271700
N     -0.127400   -2.873100    0.451500
C      0.745000   -0.637000    1.166700
C     -0.827200   -2.026800    2.634800
N     -1.166100   -2.330900    3.698400
H      0.956500    1.893200   -0.077200
H     -0.728300    1.888400   -0.615400
H     -0.356800    1.945700    1.127300
H     -1.914400   -0.084600    1.215800
H     -1.857100   -1.028100   -0.311000
H      0.589600   -3.446600    0.888200
H     -0.961800   -3.451000    0.392700
H      1.714600   -1.018100    0.830000
H      0.871400   -0.076800    2.105800
