14
gdb_8590
O     -0.142700   -0.069300   -0.234700
C     -0.032900    1.098500   -0.031800
N     -1.016900    2.128300    0.134200
C      0.014100    3.009200    0.703600
C      1.004000    4.226700    0.652900
N      1.888100    3.046100    1.164300
C      0.693500    2.690900    2.052300
C      1.096100    2.225500    0.035800
H     -1.942300    1.940000    0.507200
H      1.299500    4.613300   -0.323000
H      0.899800    5.016100    1.401300
H      0.550900    3.381500    2.886200
H      0.697700    1.648300    2.381900
H      1.435200    2.505600   -0.962400
