19
gdb_13256
O      0.029100    0.681900   -1.180900
C      0.049000    1.372800   -0.184100
N      1.116200    1.535100    0.642900
C      2.414900    0.922300    0.403000
C      3.498900    1.939600    0.072900
C      3.992800    2.914400    1.183400
C      5.438500    2.724200    0.649700
C      4.961700    1.434200   -0.070900
H     -0.829400    1.951800    0.165700
H      1.015400    2.162900    1.424700
H      2.711300    0.338400    1.285200
H      2.272000    0.225000   -0.426500
H      3.201300    2.504000   -0.817300
H      3.582000    3.927100    1.199400
H      3.874600    2.474300    2.180600
H      5.711900    3.507700   -0.062500
H      6.241600    2.628900    1.383800
H      5.135800    0.543100    0.542000
H      5.334000    1.238200   -1.078900
