15
gdb_368
C     -0.002500    1.385500    0.028000
O      0.055200   -0.039000   -0.008400
C      0.643500   -0.584500   -1.097400
C      0.641000   -2.090200   -1.013300
N      1.107900    0.147900   -2.021200
C      1.724900   -0.487300   -3.171700
H      1.001900    1.817500   -0.000800
H     -0.565200    1.775100   -0.825200
H     -0.502200    1.636700    0.964900
H      0.122800   -2.519500   -1.876900
H      1.665900   -2.475300   -1.028900
H      0.150200   -2.424000   -0.099200
H      2.501900   -1.216800   -2.899800
H      0.988200   -1.013200   -3.796600
H      2.193600    0.278500   -3.795600
