15
gdb_13588
C     -0.798200    0.864200    0.165500
N      0.265800   -0.125000    0.011300
C      1.562800    0.320800   -0.414600
C      1.375500   -0.188600    0.992200
C      1.492800    0.782300    2.105800
O      1.260800    1.974700    2.047200
C      1.950100    0.219500    3.459700
O      2.233200   -0.933100    3.653400
H     -0.459500    1.839800    0.532400
H     -1.267800    0.993100   -0.814300
H     -1.550700    0.468000    0.853700
H      2.087100   -0.316200   -1.122300
H      1.738000    1.391000   -0.514700
H      1.682900   -1.197500    1.243600
H      2.004700    1.005500    4.242200
