20
gdb_9841
C     -0.043200    1.527700    0.335800
C     -0.019700    0.037000    0.043300
C      1.290700   -0.578600   -0.394000
C      0.756000   -0.846600    0.991000
C     -1.279000   -0.565300   -0.559400
O     -2.411300   -0.490300    0.320100
C     -1.679200    0.012800   -1.921100
O     -2.847100   -0.618200   -2.402700
H      0.893200    1.840200    0.807100
H     -0.171200    2.128100   -0.570900
H     -0.848700    1.793900    1.032500
H      1.263500   -1.386800   -1.117700
H      2.149600    0.076000   -0.497300
H      1.254800   -0.374700    1.830900
H      0.359400   -1.832400    1.207700
H     -1.122800   -1.641700   -0.694800
H     -2.537300    0.434700    0.560700
H     -1.824300    1.104300   -1.835100
H     -0.882600   -0.154400   -2.654000
H     -3.418400   -0.712300   -1.628900
