16
gdb_14937
O     -0.881800    1.084200    0.235800
C      0.254500    0.737200    0.047300
C      1.441400    1.686500    0.040000
C      1.298500    2.852600    1.022500
C      2.622400    3.555200    1.162900
C      3.757400    2.999200    0.746500
C      3.800800    1.618500    0.153200
O      2.587500    0.903100    0.316600
H      0.532000   -0.321200   -0.151800
H      1.506900    2.094800   -0.987700
H      0.522900    3.536500    0.662200
H      0.946600    2.481600    1.994100
H      2.624300    4.543900    1.613200
H      4.706000    3.524000    0.820100
H      4.071000    1.673300   -0.917700
H      4.573100    1.013200    0.642100
