18
gdb_11053
C     -0.015500    1.507600    0.001800
C     -0.003800   -0.008700    0.027500
C      0.758200   -0.698200   -1.153000
O      0.975800   -2.039900   -0.710900
C      0.378500   -2.117100    0.619100
C      0.724300   -0.738300    1.194300
C     -1.127000   -1.994500    0.438300
C     -1.348200   -0.727600    0.072300
H      1.002600    1.911200   -0.000200
H     -0.524400    1.886400   -0.892000
H     -0.536300    1.912700    0.875600
H      0.177000   -0.691100   -2.083200
H      1.725400   -0.210300   -1.336200
H      0.767000   -3.010300    1.105000
H      1.801900   -0.550300    1.229400
H      0.267600   -0.536500    2.164700
H     -1.833300   -2.813900    0.468500
H     -2.280800   -0.283600   -0.255800
