20
gdb_14741
C      0.009300    1.528500    0.010200
C     -0.016800   -0.001800    0.002200
C     -1.433700   -0.558200    0.012500
O     -1.365800   -1.969300    0.004200
C     -2.645300   -2.573500    0.013000
C     -2.519100   -4.024500    0.003700
C     -2.437600   -5.224900   -0.003600
C     -2.332400   -6.676400   -0.011400
H      1.036600    1.904000    0.002500
H     -0.501300    1.941700   -0.866900
H     -0.484600    1.932100    0.901000
H      0.500900   -0.387800   -0.883300
H      0.517400   -0.397200    0.873500
H     -1.978500   -0.204700    0.906200
H     -1.995200   -0.195100   -0.867000
H     -3.213400   -2.252000    0.904100
H     -3.230100   -2.242300   -0.863600
H     -3.323700   -7.142900   -0.004200
H     -1.805300   -7.033300   -0.903000
H     -1.788400   -7.041800    0.866500
