20
gdb_17704
C     -0.192300    1.620500   -0.097100
C     -0.057100    0.106300   -0.041100
C      1.189100   -0.575700   -0.648100
C      2.089700   -0.247800    0.595200
C      2.552300   -1.716700    0.728700
C      2.989800   -2.249000    2.084900
C      1.067800   -1.808400    0.310900
C      0.654000   -0.555400    1.161300
H      0.742400    2.121500    0.175900
H     -0.467400    1.954800   -1.103800
H     -0.971000    1.972200    0.589200
H     -1.003900   -0.378000   -0.315400
H      1.524800   -0.607900   -1.687200
H      2.669400    0.663000    0.755100
H      3.252900   -2.032000   -0.056100
H      2.303500   -1.942800    2.881400
H      3.031200   -3.344100    2.084000
H      3.988900   -1.883500    2.348000
H      0.450100   -2.692400    0.136600
H      0.355600   -0.552800    2.211100
