16
gdb_11929
C      0.035000    1.539900   -0.000500
C     -0.089300    0.058500    0.131700
C     -1.336000   -0.828100   -0.043700
C     -0.714300   -1.845100    0.972100
C      0.501400   -0.908300    1.101000
O      1.032300   -0.751100   -0.233100
C      1.367700   -0.727500    2.213800
C      2.068100   -0.593700    3.182800
H      0.998000    1.875300    0.392800
H     -0.030400    1.838700   -1.052900
H     -0.766900    2.047000    0.545000
H     -2.251400   -0.365700    0.333000
H     -1.499100   -1.186400   -1.062700
H     -1.288700   -1.926800    1.896800
H     -0.476200   -2.841500    0.594600
H      2.696500   -0.473800    4.030400
