17
gdb_6303
C     -0.076000    1.655600    0.094000
C      0.058500    0.124500   -0.006700
N      0.693400   -0.286800   -1.258700
C     -0.044700   -0.615900   -2.359700
C      0.757500   -1.097100   -3.558200
O     -1.261000   -0.542200   -2.373800
C      0.793600   -0.432000    1.128700
C      1.422400   -0.861500    2.058400
H      0.908100    2.132500    0.081500
H     -0.662600    2.020700   -0.752300
H     -0.582500    1.932100    1.022700
H     -0.949500   -0.304100   -0.039500
H      1.695100   -0.383000   -1.270700
H      0.609100   -2.175400   -3.671400
H      0.367600   -0.615300   -4.457000
H      1.829100   -0.898300   -3.475800
H      1.959300   -1.253800    2.886600
