14
gdb_15760
O     -0.172100    0.092100    0.453100
C      0.011200    1.183900   -0.008300
N      1.234000    1.746900   -0.351800
C      2.500600    1.149800   -0.286700
O      2.710900    0.000700   -0.004700
N      3.487300    2.086700   -0.671100
C      4.028800    3.015000    0.334000
C      4.838500    1.876500   -0.187000
H     -0.805700    1.905200   -0.216200
H      1.213100    2.683400   -0.728300
H      4.207700    4.027900   -0.014400
H      3.645900    2.933800    1.348100
H      4.989800    1.020100    0.463000
H      5.621800    2.060000   -0.915500
