16
gdb_9114
C      0.216200    1.126300    0.503600
N     -0.148200    0.048900   -0.393300
C     -1.058600   -0.730500   -0.028500
O     -1.443000   -1.752000   -0.842500
C     -2.478300   -2.597700   -0.353500
C     -2.977800   -3.434900   -1.528300
C     -1.987000   -3.451800    0.748500
N     -1.611000   -4.114700    1.616700
H      1.278600    1.043400    0.757100
H      0.084000    2.086100   -0.007700
H     -0.364000    1.146500    1.439900
H     -1.609200   -0.672500    0.922400
H     -3.301500   -1.988800    0.046000
H     -3.352500   -2.767500   -2.307100
H     -2.161200   -4.033900   -1.936200
H     -3.781100   -4.100500   -1.204300
