18
gdb_6491
C      0.019300    1.660600   -0.094100
C     -0.215000    0.163900   -0.074400
C     -1.572600   -0.273600    0.464000
C     -1.730400   -0.013200    1.967200
N     -0.847900   -0.717400    2.733900
O     -2.577700    0.728800    2.426000
C      0.477100   -0.688000   -1.075300
N      0.901300   -0.717400    0.339800
H      1.016300    1.900100   -0.478400
H     -0.716800    2.162000   -0.731200
H     -0.074200    2.086000    0.910800
H     -2.375100    0.266300   -0.043200
H     -1.705300   -1.344400    0.278800
H     -0.052300   -1.155900    2.289700
H     -0.820700   -0.515500    3.720300
H      0.009200   -1.600900   -1.433000
H      1.132900   -0.205600   -1.795400
H      1.750400   -0.169500    0.454300
