15
gdb_11019
O     -0.160200    1.394500    0.049800
C     -0.082200    0.006600    0.045000
C     -0.420100   -0.778500   -1.184200
C     -1.332300   -0.834700    0.038400
C     -1.087500   -1.989800    0.973700
O     -1.872200   -2.840900    1.327500
N      0.232900   -1.900900    1.362600
C      0.885700   -0.644600    1.038100
H      0.506700    1.737700   -0.554600
H     -0.808600   -0.209100   -2.021700
H      0.161200   -1.656800   -1.447200
H     -2.328200   -0.418700   -0.023200
H      0.587800   -2.537400    2.058200
H      1.884100   -0.804000    0.611100
H      0.985600    0.011900    1.913000
