19
gdb_16187
O      0.167300    1.359300    0.236600
C      0.050400   -0.038000    0.001000
C     -1.390600   -0.480900   -0.086000
C     -2.106500   -0.975700    1.125900
N     -1.669400   -1.921000    0.086500
C     -2.732600   -2.272900   -0.876400
C     -3.380800   -0.961200   -1.378100
C     -2.257100    0.082500   -1.207900
H     -0.275000    1.547700    1.071100
H      0.555900   -0.217900   -0.954700
H      0.571000   -0.630900    0.767000
H     -1.573500   -1.072400    2.068900
H     -3.167300   -0.762100    1.232800
H     -2.251300   -2.808100   -1.702300
H     -3.448900   -2.958600   -0.413000
H     -3.728800   -1.040900   -2.410800
H     -4.252200   -0.696100   -0.772200
H     -2.633300    1.086100   -0.993900
H     -1.648300    0.156100   -2.116900
