20
gdb_8243
C     -0.022800    1.517800   -0.125700
C     -0.028700   -0.004400    0.004800
O      0.787600   -0.434100    1.094400
C     -1.448800   -0.579000    0.116500
C     -1.463800   -2.096400    0.077800
C     -2.826800   -2.817400   -0.021800
C     -2.253000   -3.416000   -1.320900
O     -1.061700   -2.610500   -1.220700
H      1.004200    1.889200   -0.180100
H     -0.558500    1.841500   -1.023900
H     -0.511000    1.985700    0.739300
H      0.444600   -0.445700   -0.879500
H      0.458100   -0.003400    1.891400
H     -1.906600   -0.238000    1.057800
H     -2.069100   -0.194000   -0.702400
H     -0.805400   -2.489100    0.862700
H     -3.061200   -3.523200    0.776400
H     -3.675500   -2.145300   -0.168500
H     -2.024900   -4.488900   -1.274100
H     -2.809500   -3.215300   -2.244100
