13
gdb_19639
O     -0.264600    0.397900   -0.682200
C      0.147900    1.092300    0.219600
C      1.350100    1.918800    0.117000
C      2.704900    1.629700   -0.525200
C      3.309900    2.559600    0.558900
C      2.488000    3.693300    0.062200
C      1.869200    2.782500   -1.030300
N      1.961700    2.825900    1.175100
H     -0.363900    1.153100    1.204900
H      3.025800    0.729000   -1.027400
H      4.220000    2.523100    1.143800
H      2.594000    4.766100    0.161000
H      1.419100    2.945300   -1.998400
