17
gdb_12405
O      0.002800    1.410600    0.073900
C     -0.021300    0.015100   -0.017600
C     -1.454000   -0.545600   -0.002500
C     -1.435600   -2.057900   -0.235600
N     -0.801000   -2.338200   -1.522900
C      0.609800   -1.950300   -1.559500
C      0.713200   -0.462200   -1.265000
O      1.336000    0.321100   -1.947200
H      0.587200    1.702900   -0.644000
H      0.523800   -0.437300    0.834300
H     -1.925000   -0.301600    0.954400
H     -2.028600   -0.057400   -0.796200
H     -0.923300   -2.555600    0.611200
H     -2.458600   -2.444700   -0.265500
H     -0.892200   -3.318800   -1.761800
H      1.234600   -2.482200   -0.812700
H      1.029800   -2.140400   -2.549800
