15
gdb_4557
C     -0.030100    1.438900    0.045800
N     -0.031500   -0.003100    0.022800
C     -1.157600   -0.844600    0.019800
C     -0.712900   -2.120100    0.032900
N     -1.364200   -3.356200    0.127500
N      0.678200   -2.070700    0.012500
C      1.132800   -0.752100    0.033700
O      2.285100   -0.357400    0.057900
H      1.013800    1.757400    0.045600
H     -0.532700    1.853200   -0.835800
H     -0.523000    1.825600    0.945400
H     -2.160200   -0.455000   -0.012300
H     -2.362500   -3.236100    0.244800
H     -1.204500   -3.943100   -0.686700
H      1.291000   -2.847000    0.191200
