10
gdb_200
O      0.111600    1.314400    0.170700
C      0.074700   -0.021800    0.025700
N      0.105600   -0.692300   -1.093600
C      0.043800   -2.021700   -0.701500
C     -0.024000   -2.127500    0.655600
N     -0.002900   -0.815800    1.122200
H      0.165500    1.678000   -0.722100
H      0.052300   -2.816900   -1.430400
H     -0.083200   -2.967100    1.326800
H     -0.038000   -0.503400    2.077000
