11
gdb_237
N     -0.088300    1.335500    0.156400
C      0.085700    0.021400   -0.177100
O      1.153700   -0.440600   -0.506100
C     -1.225700   -0.792600   -0.165000
C     -1.021200   -2.219600    0.015400
C     -0.876500   -3.400800    0.172100
H      0.731400    1.919200    0.197500
H     -0.939600    1.679500    0.564100
H     -1.904000   -0.406300    0.606200
H     -1.722200   -0.602800   -1.126600
H     -0.732000   -4.443900    0.307500
