16
gdb_12056
C      0.021600    1.666200   -0.044200
C      0.080100    0.156200    0.009800
O      1.111100   -0.442100   -0.844500
C      1.597100   -1.225200    0.249300
C      2.154000   -0.345600    1.316200
C      0.656500   -0.573200    1.238200
C     -1.247100   -0.498100   -0.366900
O     -2.322800    0.028000   -0.255900
H      0.928800    2.113700    0.366200
H     -0.094200    1.999900   -1.079800
H     -0.845800    2.016200    0.521000
H      1.870600   -2.255200    0.055500
H      2.627900   -0.861200    2.146000
H      2.596700    0.609800    1.052200
H      0.075200   -0.983000    2.052800
H     -1.126800   -1.533800   -0.753400
