15
gdb_16654
O      0.317000    1.194900    0.625600
C      0.010800   -0.065800    0.106900
C     -1.490000   -0.343600   -0.132800
C     -1.458100   -1.337100   -1.302900
C     -1.326100   -0.824800   -2.692700
N     -0.129600   -1.277500   -1.956600
C      0.590000   -0.254700   -1.300600
O      1.484300    0.408800   -1.759000
H      1.045600    1.531000    0.081300
H      0.421600   -0.867700    0.744900
H     -1.985000   -0.763000    0.743900
H     -1.996600    0.590900   -0.393100
H     -1.849900   -2.337200   -1.147000
H     -1.595400   -1.450000   -3.538600
H     -1.433500    0.243800   -2.861500
