20
gdb_6228
C     -0.034700    1.522100   -0.039500
C      0.014100    0.005700    0.030400
C     -1.227400   -0.665500   -0.531900
C      1.343400   -0.689600   -0.196700
O      2.446700    0.116100   -0.506300
C      0.726400   -0.669000    1.192900
C      1.374300    0.119500    2.308700
O      0.110800   -1.858400    1.630900
H      0.925000    1.983100    0.194500
H     -0.308400    1.838000   -1.052400
H     -0.792000    1.919100    0.645800
H     -1.353700   -0.400700   -1.588000
H     -1.176900   -1.751200   -0.445400
H     -2.123600   -0.332900    0.004400
H      1.304800   -1.644600   -0.723800
H      3.231500   -0.287200   -0.120800
H      1.933900    0.976600    1.931700
H      0.624400    0.473100    3.023200
H      2.078500   -0.518900    2.859100
H      0.801600   -2.443000    1.962700
