15
gdb_1731
C     -0.001700    1.452200    0.011200
C      0.021100   -0.002600    0.023000
C      0.024600   -1.207000    0.037100
C      0.071500   -2.650900    0.026100
C      1.267800   -3.268200   -0.668900
C     -0.641300   -3.402400    1.080800
O     -1.186500   -3.311300   -0.230700
H      0.713200    1.855600   -0.714200
H     -0.995300    1.826700   -0.258600
H      0.252400    1.863700    0.994300
H      2.197800   -2.947900   -0.189600
H      1.203400   -4.358500   -0.632400
H      1.300500   -2.954700   -1.716400
H     -0.270000   -4.385300    1.371300
H     -1.179900   -2.856800    1.853500
