15
gdb_10291
N      0.057300    1.189300    0.381800
C      0.010600   -0.024700   -0.206200
O      0.926000   -0.469000   -0.885800
C     -1.289100   -0.836200   -0.007500
C     -0.934700   -2.346500    0.157100
O     -0.372700   -2.877300   -1.009800
C     -2.131400   -0.354800    1.078000
C     -2.814200    0.023500    1.993700
H      0.896400    1.737500    0.284900
H     -0.675800    1.493100    1.000700
H     -1.835600   -0.754200   -0.957200
H     -0.276600   -2.455300    1.034200
H     -1.857100   -2.896200    0.364900
H      0.367700   -2.288200   -1.229700
H     -3.433000    0.345700    2.794900
