20
gdb_12511
C      0.019100    1.584400   -0.122900
C     -0.027900    0.076100   -0.002700
C     -1.210900   -0.559400   -0.026800
C     -1.462500   -2.039600    0.074000
C     -0.488400   -2.918800   -0.729200
C      0.893800   -3.081200   -0.093600
C      1.682800   -1.829600    0.161600
C      1.292100   -0.546800    0.176400
H      0.618100    1.894700   -0.988300
H     -0.979800    2.013800   -0.231300
H      0.489600    2.035800    0.759900
H     -2.100700    0.057100   -0.137300
H     -1.446800   -2.354100    1.128700
H     -2.483400   -2.236900   -0.272400
H     -0.925500   -3.916900   -0.850300
H     -0.381400   -2.499600   -1.736200
H      0.801100   -3.633300    0.854700
H      1.499500   -3.737100   -0.735100
H      2.738600   -2.010500    0.359400
H      2.083100    0.178600    0.364200
