13
gdb_423
C      0.054800    1.587000   -0.030800
C      0.025000    0.068400    0.044400
N      0.953200   -0.656400   -0.874500
C      1.486300   -1.522200    0.210700
C      0.753800   -0.618700    1.215600
O      0.769200   -0.472900    2.400300
H      1.084000    1.952400    0.017000
H     -0.390000    1.939100   -0.966700
H     -0.510500    2.015700    0.802600
H     -1.014200   -0.295100   -0.002500
H      0.485500   -1.166400   -1.614300
H      1.106000   -2.553400    0.235700
H      2.579000   -1.550700    0.282200
