19
gdb_5107
C      0.093400    1.415500    0.008600
N     -0.004000   -0.028300    0.001900
C     -0.012800   -0.820700   -1.133200
C     -0.009000   -0.249300   -2.513000
C     -0.027200   -2.132900   -0.719800
C     -0.019500   -2.140500    0.701200
C     -0.000100   -0.832800    1.128500
C      0.019300   -0.276700    2.514400
H      1.135900    1.759500   -0.001800
H     -0.411700    1.829400   -0.866600
H     -0.390600    1.819300    0.900200
H      0.874300    0.370600   -2.714300
H     -0.009400   -1.064600   -3.240200
H     -0.891500    0.371300   -2.718400
H     -0.048800   -2.990900   -1.375200
H     -0.034000   -3.005400    1.347600
H      0.905200    0.340400    2.713000
H     -0.860400    0.342100    2.736500
H      0.026300   -1.100100    3.232400
