14
gdb_20345
C     -0.068200    1.475600    0.010700
C      1.394600    1.904300   -0.000900
C      2.234600    0.849400   -0.014800
C      1.446400   -0.376300   -0.014100
C      1.446500   -1.752900   -0.021700
N      0.126800   -2.111900   -0.010900
N     -0.735100   -1.061900    0.003000
C      0.075400   -0.019300    0.001000
H     -0.597000    1.849700    0.896500
H     -0.613800    1.859400   -0.860700
H      1.692700    2.945100    0.002000
H      3.315500    0.905300   -0.024900
H      2.226700   -2.497100   -0.033200
H     -0.250200   -3.044000   -0.012300
