15
gdb_5399
C     -0.058300    1.401600    0.087400
O      0.005700   -0.012600   -0.004800
C      0.618700   -0.556600   -1.079100
C      1.204500    0.162400   -2.122800
C      1.798000   -0.555600   -3.160300
N      1.849800   -1.884900   -3.233300
C      1.281200   -2.554100   -2.220600
C      0.662300   -1.953900   -1.136700
H      0.942900    1.847600    0.127300
H     -0.612000    1.834600   -0.754500
H     -0.586900    1.619100    1.016400
H      1.209400    1.243900   -2.146300
H      2.259500   -0.011800   -3.982100
H      1.324100   -3.639200   -2.281300
H      0.215700   -2.537600   -0.340600
