22
gdb_5935
C      0.139700    1.537000   -0.063500
C     -0.030800    0.014100   -0.065900
C     -1.493100   -0.516100    0.030700
C     -2.162800   -0.059200    1.347500
C     -2.337700   -0.035700   -1.172300
C     -1.436500   -1.984500    0.013000
C     -1.382000   -3.188000   -0.002000
C     -1.319800   -4.643400   -0.019900
H      1.201500    1.793400   -0.134800
H     -0.366200    2.010100   -0.910600
H     -0.243800    1.993600    0.854000
H      0.414500   -0.398800   -0.978500
H      0.535800   -0.415100    0.768700
H     -2.270800    1.029300    1.375200
H     -3.159200   -0.500000    1.442000
H     -1.572700   -0.370800    2.214400
H     -1.873300   -0.330400   -2.118100
H     -3.338100   -0.475900   -1.136500
H     -2.447100    1.053000   -1.164700
H     -1.883500   -5.057100   -0.863700
H     -0.286800   -4.998200   -0.108200
H     -1.738100   -5.072500    0.897600
