16
gdb_13996
C     -0.023900   -1.190600    0.011000
C     -0.032100    0.012400    0.040700
C     -0.014600    1.444400    0.064500
C      0.545300    2.188600    1.275900
C      1.309700    2.176700   -0.000100
C      2.677700    1.584700   -0.312200
O      2.967000    2.685200   -1.206300
C      1.702200    3.321900   -0.927200
H     -0.028700   -2.252000   -0.011800
H     -0.845700    1.927500   -0.443500
H      0.039000    3.102900    1.568900
H      0.913600    1.586400    2.099400
H      3.382900    1.543600    0.527900
H      2.668700    0.617600   -0.829100
H      1.091200    3.444600   -1.831000
H      1.831500    4.299500   -0.443100
