20
gdb_11051
C     -0.016600    1.515300    0.010800
C     -0.004800   -0.003300    0.022300
C      0.730000   -0.674300   -1.194500
C      0.965100   -2.138100   -0.716300
C      0.334300   -2.136300    0.718500
C      0.722700   -0.718300    1.191500
C     -1.162600   -1.953200    0.521300
C     -1.360500   -0.699800    0.103600
H      1.001800    1.918800   -0.010400
H     -0.542700    1.902800   -0.869400
H     -0.518000    1.915300    0.898800
H      0.133800   -0.612900   -2.108600
H      1.678900   -0.161600   -1.386300
H      0.495900   -2.880400   -1.366300
H      2.033000   -2.372400   -0.664200
H      0.640000   -2.976100    1.343800
H      1.804100   -0.538600    1.198400
H      0.300400   -0.462700    2.167200
H     -1.896400   -2.746800    0.594100
H     -2.289400   -0.253800   -0.233500
