15
gdb_16614
C      0.004500    1.507300    0.007500
C     -0.056300    0.016800    0.020100
C     -1.101000   -0.816000   -0.102400
C     -0.639400   -2.229200   -0.075900
C      0.270000   -2.694900   -1.169500
N      0.812600   -2.204200    0.113400
C      1.190200   -0.807100    0.071800
O      2.327600   -0.413800    0.056500
H      0.686600    1.854200   -0.776100
H     -0.979000    1.954400   -0.154800
H      0.408300    1.884300    0.953700
H     -2.143200   -0.533500   -0.193300
H     -1.194400   -2.964800    0.499700
H      0.403900   -3.758400   -1.346800
H      0.378900   -2.056000   -2.042300
