12
gdb_23716
O      0.083000    1.361300   -0.120800
C      0.065300    0.003300   -0.027600
C      0.013800   -0.733600   -1.211600
N     -0.007500   -2.067200   -1.236300
C      0.021800   -2.699900   -0.086500
F     -0.000500   -4.032000   -0.140000
C      0.073600   -2.082800    1.158500
C      0.095600   -0.695000    1.180900
H      0.118800    1.744000    0.761800
H     -0.010600   -0.213300   -2.164700
H      0.095300   -2.672900    2.066000
H      0.136000   -0.161900    2.126900
