15
gdb_11607
N     -0.205200    1.272400    0.125900
C      0.038900   -0.055400   -0.081500
O      1.105100   -0.534900   -0.387600
O     -1.110800   -0.762200    0.071100
C     -0.987100   -2.174000   -0.145600
C     -2.372800   -2.741900   -0.234600
C     -2.643200   -4.129800    0.157500
O     -3.030200   -3.043400    0.997100
H      0.603500    1.857800    0.243900
H     -1.055000    1.540400    0.592600
H     -0.426100   -2.353100   -1.068200
H     -0.439200   -2.631300    0.684800
H     -3.015000   -2.277500   -0.983400
H     -3.456800   -4.672800   -0.320500
H     -1.833200   -4.750400    0.539100
