13
gdb_15969
N     -0.136300   -1.111700   -0.443500
C     -0.072100    0.010200   -0.174000
C      0.041700    1.435000    0.137400
O      0.018000    1.714300    1.550800
C      1.296100    2.402500    1.515300
C      1.446800    2.060200    0.037600
C      2.591500    1.711000   -0.793500
O      1.848900    2.935800   -0.974700
H     -0.725400    1.996800   -0.410300
H      1.193100    3.473600    1.721900
H      2.020500    1.954000    2.202700
H      3.598700    1.833400   -0.400000
H      2.476100    0.974700   -1.586300
