17
gdb_8122
C      0.003300    1.548300    0.022000
C      0.037700    0.042400    0.025900
C     -0.849700   -0.789600    0.927000
C      0.656200   -0.798500    1.120800
C      1.464400   -1.897500    0.457000
C      1.154500   -1.760200   -1.045200
O      1.463400   -2.526800   -1.928800
N      0.437200   -0.596500   -1.201800
H      0.963400    1.961100   -0.304400
H     -0.775400    1.929000   -0.649700
H     -0.214000    1.928400    1.024200
H     -1.436200   -0.272100    1.679100
H     -1.327600   -1.668100    0.504400
H      1.053200   -0.314000    2.005200
H      2.540900   -1.768700    0.611700
H      1.209800   -2.909300    0.784700
H     -0.021300   -0.416000   -2.082300
