17
gdb_13800
C     -0.094200    0.811700   -0.389100
O     -0.501800   -0.273600    0.437400
C      0.478400   -0.657000    1.338900
C      0.365700   -2.042300    1.888500
C      1.498500   -1.704700    0.936000
C      1.548600   -2.180600   -0.496400
N      0.934200   -3.369100   -0.753200
O      2.117300   -1.540000   -1.362400
H      0.793700    0.551400   -0.975200
H     -0.930100    1.027000   -1.058300
H      0.116700    1.707300    0.214500
H      0.825100    0.139600    1.999400
H      0.592200   -2.219300    2.933900
H     -0.464300   -2.621600    1.497300
H      2.491700   -1.582900    1.357600
H      0.582100   -3.954300   -0.017600
H      0.995900   -3.740900   -1.687000
