15
gdb_8819
C      0.110300    1.500900    0.128700
C      0.124900   -0.017500   -0.037000
C      0.801700   -0.479300   -1.302100
O      1.294200    0.255500   -2.124300
C      0.860400   -2.009700   -1.600200
O      1.451500   -2.238300   -2.839200
C      1.583600   -2.692900   -0.507700
N      2.139600   -3.209900    0.363500
H      1.127100    1.899700    0.156100
H     -0.410300    1.981900   -0.703100
H     -0.393800    1.775300    1.058500
H      0.627300   -0.510600    0.805500
H     -0.893400   -0.431700   -0.039600
H     -0.173900   -2.388400   -1.593400
H      1.777600   -1.366500   -3.125400
