14
gdb_3653
C      0.076800    1.504700    0.014300
C     -0.061400    0.025200   -0.057600
C     -1.126100   -0.826600    0.005200
C     -2.581000   -0.521600    0.177000
C     -0.511400   -2.105500   -0.134600
N      0.787600   -2.034500   -0.267900
O      1.080400   -0.674800   -0.219400
H      0.716100    1.799000    0.853300
H      0.530800    1.901600   -0.899800
H     -0.900200    1.973900    0.145000
H     -3.172200   -0.887800   -0.669600
H     -2.986800   -0.989300    1.080900
H     -2.756100    0.554500    0.257900
H     -0.985800   -3.078000   -0.141300
