14
gdb_18685
O      0.025400   -0.023600   -0.223300
C     -0.007500    1.176000   -0.095600
C     -1.296300    1.985100    0.048700
O     -1.279600    3.067300   -0.871100
C     -0.299000    4.049100   -0.591900
C      1.079800    3.477300   -0.305600
O      1.277000    2.957500    1.004000
C      1.235600    2.021200   -0.090100
H     -2.144700    1.350100   -0.211000
H     -1.406100    2.335800    1.086800
H     -0.258400    4.689600   -1.477800
H     -0.599000    4.668900    0.268900
H      1.931300    4.032900   -0.698400
H      2.168700    1.510100   -0.315500
