15
gdb_17049
C      0.180100    1.283700    0.178200
O     -0.316000    0.034000   -0.257600
C      0.440100   -0.534200   -1.268000
C      1.765700   -1.300300   -0.900400
N      0.861600   -2.345000   -0.245200
C      0.126900   -2.024300   -1.549800
C      1.531600   -2.111600   -2.190900
O      2.127700   -2.693200   -3.044300
H      1.168900    1.187900    0.648700
H      0.256500    2.001200   -0.653300
H     -0.527200    1.668600    0.915400
H      0.514800    0.121400   -2.146600
H      2.677600   -0.942500   -0.427800
H      1.290400   -3.274000   -0.289300
H     -0.824800   -2.482100   -1.809100
