13
gdb_20428
C     -0.162500    1.294600   -0.278800
C      1.256200    1.009500    0.084500
N      0.246600   -0.041500    0.140400
C     -0.154800   -0.537100    1.364800
N     -1.427400   -0.655700    1.740300
N     -1.274400   -1.254300    2.920100
N     -0.024300   -1.491300    3.270300
N      0.712700   -1.038600    2.287700
H     -0.757400    1.876400    0.420100
H     -0.457000    1.379800   -1.319900
H      2.006100    0.884100   -0.689700
H      1.625800    1.397200    1.029500
H     -2.055000   -1.508800    3.506000
