13
gdb_1604
C     -0.044700    1.561400   -0.160400
C      0.090200    0.048100    0.061400
O      0.773900   -0.223000    1.252800
C     -1.274100   -0.641300    0.091100
O     -1.620700   -1.271100    1.071900
C     -2.105300   -0.525100   -1.085000
C     -2.778100   -0.427200   -2.078200
H      0.952000    2.008500   -0.155600
H     -0.525600    1.781200   -1.117200
H     -0.628000    2.013100    0.647100
H      0.634000   -0.382700   -0.797900
H      0.179700   -0.785900    1.774700
H     -3.384200   -0.348700   -2.948500
