15
gdb_2246
O     -0.197600    1.414700   -0.005900
C     -0.090900    0.027300    0.028700
C     -0.396400   -0.815400   -1.181500
C     -1.320400   -0.837700    0.022000
C     -1.061600   -1.923100    1.047400
O      0.353600   -1.926700    1.249900
C      0.831700   -0.600500    1.066100
H      0.528500    1.758200   -0.537400
H     -0.764700   -0.285000   -2.052700
H      0.219500   -1.685900   -1.386800
H     -2.304700   -0.393700   -0.060500
H     -1.596800   -1.695500    1.983400
H     -1.341100   -2.931600    0.725500
H      1.882000   -0.672800    0.761800
H      0.772700   -0.004100    1.991200
