17
gdb_4142
O     -0.110700    1.355500    0.124300
N      0.041000   -0.042300    0.041400
C     -1.083100   -0.626100   -0.074600
C     -2.458300    0.000800   -0.194200
C     -3.298300   -1.082800   -0.854600
C     -2.766700   -1.656100   -2.145200
C     -2.513900   -2.382700   -0.848100
C     -1.175400   -2.138000   -0.166100
H      0.804000    1.654300    0.160600
H     -2.845200    0.245400    0.804100
H     -2.411700    0.940100   -0.752700
H     -4.370100   -1.077000   -0.694500
H     -3.482700   -2.093700   -2.831900
H     -1.933900   -1.154700   -2.631300
H     -3.009800   -3.331800   -0.681700
H     -0.315500   -2.564800   -0.690400
H     -1.186000   -2.570100    0.843700
