20
gdb_15765
C      0.185900    1.395500    0.073700
C      0.063200   -0.054500    0.014700
C     -0.031300   -1.254600   -0.027100
C     -0.160000   -2.712400   -0.102300
C     -1.640700   -3.137300   -0.180100
C      0.640200   -3.277100   -1.271800
C      2.118300   -3.518300   -1.139800
C      1.165700   -4.688600   -1.212100
H      0.906200    1.765400   -0.664700
H     -0.772800    1.887100   -0.126000
H      0.526800    1.727400    1.061000
H      0.263500   -3.139800    0.818900
H     -1.720400   -4.228400   -0.198700
H     -2.201900   -2.758200    0.678100
H     -2.106000   -2.742300   -1.088500
H      0.293800   -2.929800   -2.241700
H      2.754400   -3.315000   -1.993900
H      2.580200   -3.300100   -0.182400
H      0.993900   -5.256100   -0.302600
H      1.147400   -5.287700   -2.115800
