19
gdb_5871
C     -0.039800    1.581400    0.169300
C      0.022800    0.053000    0.025600
C      0.719500   -0.569600    1.243800
O     -1.300600   -0.481500   -0.103100
C      0.752700   -0.384600   -1.257500
C      0.034600    0.047000   -2.552000
C      0.692400   -0.479100   -3.744900
N      1.226200   -0.900400   -4.679400
H      0.962100    2.022000    0.191000
H     -0.603200    2.036500   -0.649300
H     -0.539500    1.853300    1.106200
H      0.199500   -0.290500    2.167500
H      0.717300   -1.660200    1.166900
H      1.755800   -0.227400    1.331000
H     -1.802900   -0.227800    0.678300
H      1.773000    0.011100   -1.248200
H      0.830300   -1.476200   -1.252000
H     -1.000000   -0.307000   -2.525200
H     -0.002300    1.138100   -2.637600
