15
gdb_9226
O      0.429600    0.110000    0.853800
C     -0.183500    0.230000   -0.422000
C     -1.535100   -0.482700   -0.544700
O     -2.259900   -0.310600   -1.506900
N     -1.817300   -1.316700    0.494500
C     -3.028400   -2.101000    0.549400
C     -2.770000   -3.589300    0.359500
O     -3.400000   -4.456300    0.903100
H      0.073800    0.799200    1.423200
H     -0.328100    1.272000   -0.728300
H      0.496200   -0.228200   -1.148400
H     -1.119400   -1.383100    1.220600
H     -3.579600   -1.950400    1.483000
H     -3.654600   -1.759200   -0.285300
H     -1.936000   -3.814500   -0.344200
