17
gdb_4159
C     -0.101200    1.514600    0.042100
C      0.310800    0.048800   -0.118500
C      0.762000   -0.565900    1.198400
O     -0.304300   -0.637200    2.193400
C     -0.196500   -2.075100    2.314600
C      0.896400   -2.069100    1.277200
N      1.634200   -2.890600    0.666400
O      1.366800   -4.207800    1.079500
H      0.738400    2.127300    0.388600
H     -0.450000    1.930300   -0.907600
H     -0.909100    1.607000    0.773400
H     -0.524500   -0.540500   -0.513700
H      1.136200   -0.047900   -0.834500
H      1.625400   -0.017300    1.602600
H      0.108500   -2.395000    3.319200
H     -1.120000   -2.598400    2.036800
H      1.986800   -4.718900    0.548000
