18
gdb_13854
C     -0.230000    1.437900    0.080700
C     -0.069800   -0.071400    0.077000
O     -0.090700   -0.716900    1.100000
C      0.078200   -0.724600   -1.294300
C      0.631900   -2.168400   -1.265000
C     -0.444000   -2.993200   -2.004300
O     -1.187500   -2.059200   -2.779100
C     -1.313900   -0.906300   -1.977500
H      0.685800    1.909100   -0.295200
H     -1.039400    1.744200   -0.591900
H     -0.433900    1.791300    1.092000
H      0.691200   -0.079400   -1.930600
H      1.594000   -2.220600   -1.779200
H      0.767500   -2.504200   -0.235600
H     -0.038500   -3.743500   -2.686800
H     -1.105400   -3.498900   -1.283600
H     -2.094800   -1.045400   -1.210300
H     -1.599700   -0.070800   -2.620900
