14
gdb_5679
C     -0.066000    1.468800    0.010600
C      1.404100    1.853100   -0.001200
C      2.178300    0.754400   -0.014800
C      1.316400   -0.416400   -0.013100
N      1.409100   -1.729100   -0.021200
C      0.098400   -2.155200   -0.011000
C     -0.782800   -1.094200    0.003200
N      0.017400    0.020000    0.001700
H     -0.584500    1.839100    0.903500
H     -0.601400    1.849000   -0.868100
H      1.729300    2.883500    0.001400
H      3.257600    0.714600   -0.025300
H     -0.147800   -3.206600   -0.014400
H     -1.858900   -1.046400    0.013600
