12
gdb_20691
C      0.016500    1.502300   -0.000600
C     -0.059600    0.008800   -0.000200
N     -1.140100   -0.630800   -0.262400
C     -1.089700   -2.028000   -0.231600
O     -2.042500   -2.735800   -0.460900
C      0.237300   -2.595900    0.108000
N      1.294400   -1.921000    0.363800
O      1.144500   -0.529700    0.308200
H      0.760600    1.840800   -0.727900
H     -0.962100    1.908800   -0.250700
H      0.332700    1.863000    0.982800
H      0.352600   -3.675400    0.150800
