11
gdb_1011
N      0.124500   -1.138500   -0.004800
C      0.025600    0.016900    0.002700
C     -0.075500    1.423800    0.011600
C     -1.186900    2.252300    0.030800
C     -0.718700    3.585000    0.031800
C      0.661600    3.539500    0.013200
N      1.043500    2.232600    0.001000
H     -2.211200    1.915600    0.042600
H     -1.320500    4.479800    0.044700
H      1.394200    4.330500    0.007800
H      1.990400    1.893600   -0.013500
