14
gdb_1388
C     -0.010100    1.490900    0.023800
C      0.002100    0.035800   -0.001800
C      0.021400   -1.166500   -0.027000
C      0.016300   -2.630700   -0.046200
C     -1.418400   -3.213100    0.001100
C      0.739000   -3.144500   -1.224000
N      1.294200   -3.569200   -2.143700
H      1.008300    1.893600    0.020100
H     -0.533100    1.896800   -0.848600
H     -0.514600    1.866400    0.920500
H      0.561400   -2.997800    0.834500
H     -1.383600   -4.305100    0.011900
H     -1.920200   -2.860100    0.904400
H     -1.990200   -2.885400   -0.869200
