15
gdb_4845
C      0.326400    1.266000    0.278700
N     -0.304400    0.048200   -0.240900
C      0.450400   -0.722500   -1.103800
C      0.990400   -1.958000   -1.042900
N      1.699300   -2.250400   -2.205100
C      1.551900   -1.178400   -2.924600
N      1.995300   -0.971500   -4.208800
O      0.825900   -0.194900   -2.365300
H      1.246300    0.991400    0.802400
H      0.578900    2.002000   -0.498500
H     -0.349400    1.737200    0.998100
H     -1.231400    0.242500   -0.603200
H      0.915300   -2.662700   -0.229900
H      2.728300   -1.613800   -4.472100
H      2.203700   -0.009800   -4.434200
