15
gdb_14120
O     -0.067800    0.256400   -0.893700
C     -0.106700    1.260800    0.002600
O      0.810400    1.520100    0.736300
C     -1.410200    1.982200   -0.002000
C     -1.668500    3.285600    0.695600
C     -2.445800    2.080500    1.132300
C     -3.506500    1.711000    0.092700
N     -2.450600    1.598500   -0.968100
H     -2.559200    2.263700   -1.730900
H     -0.950800    0.225600   -1.309300
H     -0.873000    3.587700    1.367600
H     -2.154200    4.091200    0.149300
H     -2.360100    1.663400    2.126200
H     -3.990500    0.746900    0.268300
H     -4.274500    2.469200   -0.097600
