17
gdb_16238
O      0.428900    0.865200   -0.752000
C      0.067500   -0.256400    0.028200
C      0.445500   -0.186400    1.530700
C     -0.649600   -0.986800    2.197300
C     -1.675400   -1.211500    1.374300
C     -1.432500   -0.611200    0.037400
C     -2.433000    0.209100   -0.704200
N     -2.102600   -1.154100   -1.152800
H      0.040000    1.645400   -0.340500
H      0.605000   -1.094700   -0.431500
H      1.452900   -0.567700    1.726400
H      0.438900    0.859700    1.874300
H     -0.595300   -1.304200    3.232400
H     -2.589900   -1.741900    1.611000
H     -3.437000    0.334300   -0.307200
H     -2.057800    1.045500   -1.287600
H     -1.466100   -1.096300   -1.946600
