15
gdb_16087
N      0.022900   -1.117000   -0.081400
C      0.020600    0.039300   -0.028900
C      0.003000    1.470000    0.045400
C      0.398600    2.260400   -1.190200
C      1.308100    2.286400    0.011000
C      1.075400    3.404800    0.969300
C     -0.143900    3.358400    1.509200
C     -0.928900    2.143400    1.066000
H      0.710900    1.677600   -2.049200
H     -0.174200    3.153700   -1.415900
H      2.272200    1.795400   -0.052400
H      1.819000    4.170700    1.153900
H     -0.560800    4.096700    2.183900
H     -1.898300    2.404000    0.624900
H     -1.137700    1.469300    1.905500
