17
gdb_13801
N     -0.021600    1.272200    0.343800
C      0.010700    0.083400   -0.327900
O      0.981600   -0.255000   -0.985400
C     -1.229400   -0.745700   -0.184600
C     -1.565800   -1.720600   -1.297100
C     -1.147600   -2.253700    0.034000
C      0.162300   -2.978900    0.212800
O     -0.080900   -4.350800   -0.087500
H      0.766900    1.890600    0.250000
H     -0.829400    1.587900    0.849700
H     -2.063000   -0.253800    0.307300
H     -2.602000   -1.804200   -1.603500
H     -0.834300   -1.769500   -2.096200
H     -1.941700   -2.649100    0.662000
H      0.921100   -2.542100   -0.444700
H      0.510000   -2.862400    1.252800
H      0.763400   -4.809900   -0.057600
