14
gdb_9007
C      0.198900    1.463600   -0.004900
C     -0.005400    0.030700   -0.154100
C     -0.173900   -1.153800   -0.277500
C     -0.388400   -2.581900   -0.416900
C     -1.541700   -3.131000    0.413100
O     -2.255100   -2.491700    1.143900
C     -1.793500   -4.641100    0.285500
O     -1.140000   -5.368000   -0.415000
H      1.231000    1.690500    0.283800
H     -0.009100    1.994700   -0.940100
H     -0.460700    1.876600    0.765900
H     -0.578900   -2.868000   -1.461300
H      0.506900   -3.159600   -0.145300
H     -2.643600   -4.986900    0.910300
