22
gdb_17268
C      0.040300    1.534200   -0.176700
C      0.138100    0.031600   -0.020700
C      1.478400   -0.663500    0.037200
C      0.589200   -0.638500    1.258900
C      0.977300    0.128300    2.510000
C      1.809900   -0.697700    3.472000
C      3.310200   -0.761200    3.338900
C      2.683700   -0.029700    4.502200
H      0.857300    2.053900    0.332000
H      0.084700    1.817000   -1.234400
H     -0.901600    1.920600    0.229500
H     -0.637800   -0.507200   -0.559900
H      1.616900   -1.595900   -0.499500
H      2.361500   -0.031300    0.054700
H      0.082200   -1.576200    1.478800
H      1.536900    1.033100    2.243800
H      0.068600    0.472900    3.024100
H      1.329600   -1.620000    3.792000
H      3.811400   -1.703600    3.530600
H      3.774600   -0.166000    2.559400
H      2.728400    1.055000    4.501000
H      2.754300   -0.472200    5.489800
