15
gdb_524
C     -0.043000    1.489300    0.061500
C      0.117800   -0.017900   -0.005200
O      0.644900   -0.458900    1.249400
C      0.851700   -1.784400    1.367700
N      1.313500   -2.272600    2.430700
C      1.504900   -3.706300    2.475200
H      0.920900    1.970400    0.247200
H     -0.445400    1.866100   -0.883400
H     -0.726900    1.767200    0.867900
H     -0.848500   -0.505600   -0.194200
H      0.802400   -0.301900   -0.816300
H      0.584600   -2.371200    0.473100
H      0.922000   -4.130400    3.301000
H      1.217200   -4.227600    1.546800
H      2.557600   -3.931200    2.682300
