15
gdb_4880
C      0.144400    1.564600   -0.038900
C     -0.034400    0.040100    0.065900
C      0.590800   -0.538800    1.280600
C      0.133500   -1.195700    2.343000
O      1.189600   -1.495500    3.190300
C      2.321900   -0.988500    2.600700
N      3.505600   -1.028400    3.018700
O      1.966000   -0.397900    1.423600
H      1.204400    1.830600   -0.044800
H     -0.308500    1.938200   -0.961300
H     -0.328200    2.072300    0.807100
H     -1.097300   -0.221900    0.077400
H      0.400700   -0.439700   -0.820200
H     -0.846600   -1.519800    2.643900
H      3.552200   -1.512800    3.911100
