18
gdb_14862
C     -0.025500    1.475300   -0.115000
C      0.025800   -0.050000    0.020500
C     -1.366000   -0.650300    0.119200
O     -2.145200   -0.477700   -1.088000
C     -2.531700   -1.862100   -1.089700
C     -1.578700   -2.200900    0.080600
C     -0.379600   -3.027400   -0.302600
O      0.119700   -3.868700    0.399700
H      0.979700    1.895700   -0.209100
H     -0.600300    1.761900   -1.000200
H     -0.501300    1.933900    0.758800
H      0.550100   -0.478900   -0.840400
H      0.589900   -0.337000    0.917400
H     -1.895100   -0.209700    0.977700
H     -3.594100   -2.000000   -0.854300
H     -2.312700   -2.348100   -2.048900
H     -2.030100   -2.626400    0.977100
H      0.028000   -2.814200   -1.317900
