15
gdb_4121
O     -0.157400    1.339900   -0.007400
N      0.024100   -0.065800   -0.003900
C     -1.090200   -0.653800    0.097700
C     -2.551200   -0.237800    0.029500
O     -2.883500    0.775600   -0.884000
C     -2.851700   -1.690900   -0.449700
C     -1.426000   -2.134000   -0.011200
O     -0.740100   -2.909300   -0.959700
H      0.734000    1.666400   -0.169900
H     -2.967200   -0.039600    1.029700
H     -2.226400    1.473600   -0.772300
H     -3.698400   -2.205800    0.003700
H     -2.926900   -1.712500   -1.538100
H     -1.432000   -2.616400    0.978700
H      0.202400   -2.838000   -0.773600
