10
gdb_1028
O     -0.018900   -0.070900   -0.000600
C     -0.012700    1.137700    0.008900
C      1.179500    1.972800    0.002300
C      1.363100    3.326500    0.010900
N      2.712200    3.611400   -0.001500
C      3.273000    2.438900   -0.016900
O      2.425600    1.398600   -0.015700
H     -0.949300    1.735300    0.023600
H      0.615700    4.104900    0.025100
H      4.327200    2.208600   -0.030100
