17
gdb_18023
O      0.090700    1.171800   -0.465600
C      0.051500   -0.138100    0.075400
C     -1.392200   -0.610700    0.196000
N     -2.141800   -0.466600   -1.100200
C     -2.596800   -1.881700   -1.032100
C     -1.636200   -2.836700   -1.757700
O     -0.787100   -2.929200   -0.582200
C     -1.696700   -2.132200    0.200600
H     -0.389500    1.109000   -1.301700
H      0.612300   -0.851200   -0.543400
H      0.528400   -0.094000    1.060100
H     -1.896000   -0.099900    1.025900
H     -2.909400    0.191200   -1.034100
H     -3.670900   -2.057100   -1.094300
H     -2.057200   -3.817400   -2.012900
H     -1.116000   -2.410200   -2.621400
H     -1.973500   -2.612800    1.141200
