12
gdb_23631
F      0.040900    0.063400    0.002400
C     -0.026700    1.385500    0.010700
C     -1.228500    2.004400    0.030600
C     -1.286300    3.450100    0.039400
N     -2.375600    4.120500    0.058100
N      0.016700    4.018900    0.024700
C      1.154800    3.284900    0.005000
N      1.195700    1.992200   -0.002700
H     -2.157600    1.452800    0.040200
H     -2.209400    5.127300    0.061400
H      0.086100    5.026400    0.029400
H      2.082500    3.851200   -0.004500
