18
gdb_17613
C      0.138600    1.551700    0.083900
C     -0.044300    0.025300    0.036800
O     -1.406400   -0.304500    0.009900
C      0.657000   -0.582200   -1.180500
O     -0.017200   -1.132100   -2.034600
C      2.132300   -0.485900   -1.273900
C      2.862300   -1.621500   -1.981700
C      2.737800   -0.305400   -2.662500
H      1.189200    1.838300    0.188300
H     -0.265100    2.009000   -0.824300
H     -0.414500    1.946400    0.939700
H      0.429200   -0.411500    0.933200
H     -1.532600   -0.774500   -0.831100
H      2.639100   -0.010500   -0.442600
H      3.822200   -1.914300   -1.572600
H      2.233800   -2.430600   -2.335000
H      2.025700   -0.226900   -3.475600
H      3.608600    0.335400   -2.737000
