16
gdb_8769
C      0.103500    1.537700    0.003000
C      0.009600    0.002300   -0.001900
C      0.749800   -0.548900    1.205600
O      1.821100   -1.096700    1.150500
C     -1.464700   -0.495600    0.014400
O     -2.170800   -0.028400    1.161300
C     -2.154400   -0.151200   -1.229800
C     -2.720700    0.172600   -2.239800
H      1.145300    1.857700   -0.078500
H     -0.452200    1.956600   -0.841100
H     -0.304200    1.955700    0.929300
H      0.500000   -0.397500   -0.895000
H      0.228300   -0.390300    2.174500
H     -1.453600   -1.588000    0.116300
H     -2.493100    0.858400    0.968500
H     -3.229200    0.437300   -3.134300
