14
gdb_4597
C     -0.010500    1.554400    0.006100
C     -0.027800    0.050700    0.009800
C     -1.159100   -0.690400   -0.155600
N     -1.091500   -2.042900   -0.139300
C      0.102200   -2.783700    0.042200
O      0.060300   -3.993800    0.041600
N      1.251400   -2.021000    0.210000
C      1.162800   -0.721400    0.190700
H      0.629300    1.949000   -0.791400
H     -1.015100    1.959300   -0.145100
H      0.369600    1.956100    0.952200
H     -2.142300   -0.255900   -0.304200
H     -1.922200   -2.604900   -0.260500
H      2.102400   -0.180600    0.328200
