16
gdb_9499
N      0.415000    1.136800   -0.480000
C      0.085800   -0.087900    0.185800
C     -0.059600   -0.059400    1.728100
C     -1.231700   -1.069500    1.614400
C     -1.391900   -0.671600    0.118400
O     -2.261100    0.426800   -0.078600
C     -1.662000   -1.741600   -0.843100
N     -1.859900   -2.593600   -1.600300
H      0.541200    0.991500   -1.476700
H     -0.344300    1.802500   -0.369300
H      0.784400   -0.871300   -0.119200
H      0.812300   -0.355700    2.312600
H     -0.399600    0.921200    2.069000
H     -0.908800   -2.107400    1.722900
H     -2.115100   -0.901300    2.234100
H     -3.166300    0.136200    0.079800
