12
gdb_1025
O     -0.178000   -0.011600    0.000100
C     -0.026600    1.191800    0.008000
C      1.250700    1.873600   -0.001000
C      2.550700    1.382700   -0.019600
C      3.425100    2.486000   -0.020500
C      2.644200    3.631800   -0.002500
N      1.339900    3.252900    0.008800
H     -0.907000    1.880300    0.023400
H      2.806600    0.335000   -0.030900
H      4.503700    2.462100   -0.032800
H      2.923200    4.673700    0.002700
H      0.550900    3.877500    0.022700
