17
gdb_3288
C      0.216400    1.567900    0.048700
C      0.062100    0.055900    0.020700
C      0.947200   -0.778900   -0.965400
C      1.416500   -1.683900    0.209200
C      2.673300   -1.170900    0.924500
O      1.901000   -0.224800    1.702300
C      0.654900   -0.757100    1.199800
H      1.250300    1.841200    0.277500
H     -0.054400    2.008100   -0.917000
H     -0.424600    2.019000    0.814100
H     -0.992200   -0.217400   -0.105200
H      0.385400   -1.296700   -1.745800
H      1.757000   -0.217900   -1.442600
H      1.268900   -2.759200    0.123000
H      3.164100   -1.907500    1.574900
H      3.433000   -0.680600    0.302300
H     -0.007300   -1.078500    2.009500
