16
gdb_303
C     -0.025700    1.530000   -0.137400
C     -0.002000    0.039100    0.085500
O      1.250100   -0.639100   -0.082500
C      0.635900   -0.659300    1.219700
C      1.387300    0.080300    2.305700
C      0.101600   -2.015500    1.633100
H      0.812500    2.033100    0.347600
H      0.026300    1.748400   -1.209500
H     -0.959500    1.957600    0.244300
H     -0.839500   -0.484600   -0.383700
H      1.803500    1.022200    1.946500
H      0.730800    0.289500    3.157500
H      2.217500   -0.534800    2.670100
H      0.919700   -2.663800    1.966200
H     -0.607800   -1.920600    2.462600
H     -0.402600   -2.506200    0.797000
