14
gdb_5435
C     -0.002900    1.519200    0.093000
C      0.014100    0.034200   -0.007600
C      0.000500   -0.812500   -1.100500
N      0.027500   -2.139000   -0.691400
C      0.056500   -2.093700    0.613900
N      0.049900   -0.807000    1.079900
C     -0.035600   -0.425200   -2.461600
C     -0.066500   -0.073400   -3.613200
H      0.890900    1.908500    0.595300
H     -0.036100    1.944500   -0.912100
H     -0.877900    1.884800    0.643900
H      0.082800   -2.945300    1.277400
H      0.068000   -0.520200    2.044700
H     -0.093500    0.223200   -4.632000
