15
gdb_20436
C      0.046700    1.510300   -0.047800
C      1.552600    1.896300    0.045300
N      2.105200    0.700000    0.650300
N      3.321900    0.402700    1.150600
C      3.161600   -0.883700    1.452200
N      1.936100   -1.418200    1.167000
C      1.302900   -0.376900    0.656800
C     -0.019700   -0.048600    0.040700
H     -0.487900    1.945300    0.800300
H     -0.412500    1.896500   -0.959100
H      2.006900    2.072200   -0.936300
H      1.732300    2.774900    0.668900
H      3.959400   -1.457300    1.900700
H     -0.866600   -0.396500    0.636100
H     -0.109000   -0.510400   -0.949300
