16
gdb_14884
C      0.121400   -1.201500    0.036300
C     -0.012000   -0.003800    0.011200
C     -0.088900    1.414000   -0.017400
C     -1.249200    2.087200   -0.009400
C     -1.294300    3.588500    0.022400
C      0.073700    4.148700    0.417000
O      1.103600    3.529900   -0.335200
C      1.237900    2.157500   -0.042600
H      0.217200   -2.258600    0.059800
H     -2.187400    1.540900   -0.016400
H     -1.593200    3.978600   -0.960600
H     -2.058700    3.929800    0.732300
H      0.143900    5.220100    0.211400
H      0.243200    3.995800    1.495600
H      1.754300    2.007700    0.922400
H      1.882000    1.735600   -0.820900
