14
gdb_8783
C     -0.052300    1.539200    0.081400
C      0.023600    0.019700   -0.037200
C      0.737000   -0.442300   -1.286400
O      1.207700    0.290600   -2.121700
C      0.847200   -1.977500   -1.463700
O      0.383200   -2.735100   -0.639400
C      1.528600   -2.423700   -2.657500
C      2.092200   -2.818700   -3.644800
H      0.947200    1.981500    0.102000
H     -0.582300    1.973200   -0.770500
H     -0.576100    1.825600    0.997100
H      0.532400   -0.436000    0.822200
H     -0.971400   -0.444200   -0.033800
H      2.590700   -3.164700   -4.518000
