14
gdb_9020
C     -0.009800    1.551000    0.000500
C     -0.020000    0.001100    0.055500
C      0.736200   -0.495100    1.210900
C      1.370600   -0.877000    2.156200
C     -1.388200   -0.521500    0.051300
C     -2.523400   -0.937900    0.029500
C     -3.801800   -1.404200    0.010500
C     -4.935900   -1.818100   -0.008300
H      1.021000    1.911400   -0.035500
H     -0.543200    1.895800   -0.888400
H     -0.496400    1.964000    0.886400
H      0.478100   -0.366200   -0.854100
H      1.925100   -1.225800    2.992100
H     -5.933300   -2.181600   -0.022500
