9
gdb_23855
F      0.033600    0.072500    0.003800
C     -0.019800    1.379500    0.010700
N     -1.191900    1.893200    0.028200
O     -1.217200    3.287500    0.035500
C     -0.057600    3.962600    0.024200
N      1.132200    3.501500    0.006900
C      1.281300    2.110400   -0.002000
O      2.339000    1.537000   -0.018200
H     -0.263600    5.030700    0.032200
