15
gdb_10417
C      0.007300    1.434600   -0.011900
O     -0.005300    0.019800    0.133800
C     -1.265500   -0.576400    0.025000
C     -1.859900   -0.709500   -1.412500
O     -1.736000   -2.139900   -1.373000
C     -1.150500   -2.118000   -0.060400
C     -2.206500   -0.069800    1.036500
N     -2.942800    0.340000    1.827600
H      1.050600    1.741300    0.073300
H     -0.377700    1.743200   -0.993500
H     -0.581900    1.924600    0.773100
H     -2.896900   -0.383600   -1.541600
H     -1.220600   -0.252500   -2.177000
H     -0.105000   -2.443700   -0.052800
H     -1.735000   -2.686400    0.669100
