15
gdb_5911
C      0.099700    1.584100   -0.015800
C      0.010200    0.055700   -0.001500
O      0.710900   -0.373400    1.150700
C     -1.467300   -0.445200    0.005600
C     -2.213900    0.003000    1.171500
C     -2.836900    0.371600    2.130200
C      0.659200   -0.499600   -1.217200
N      1.156300   -0.963500   -2.151600
H      1.146900    1.891400    0.000800
H     -0.378000    1.992100   -0.909600
H     -0.402500    1.972300    0.872400
H      0.671900   -1.335500    1.202200
H     -1.956300   -0.108200   -0.916100
H     -1.460500   -1.541900   -0.037600
H     -3.389300    0.693600    2.978200
