18
gdb_11451
C      0.024900    1.433700    0.124400
C      0.012800   -0.051700   -0.032200
C     -0.184200   -0.782900   -1.126900
C     -0.085400   -2.246900   -0.813500
C      1.072200   -2.978400   -1.502000
O      1.201600   -4.294900   -1.007400
O      0.141100   -2.298300    0.606800
C      0.237500   -0.979600    1.136100
H      0.987400    1.781600    0.519800
H     -0.154500    1.939600   -0.827400
H     -0.742300    1.763400    0.836200
H     -0.377500   -0.404900   -2.123500
H     -1.015100   -2.795600   -1.031800
H      0.885000   -3.053500   -2.579200
H      1.995900   -2.394300   -1.357100
H      1.203600   -4.209100   -0.045900
H      1.223400   -0.825900    1.604200
H     -0.517500   -0.841300    1.926700
