17
gdb_12476
N     -0.067100    1.311700    0.315200
C     -0.009900    0.087100   -0.006400
C     -1.276700   -0.737200   -0.081700
C     -1.456900   -1.520100   -1.394000
C     -0.671500   -2.835600   -1.397200
O      0.584200   -2.745200   -0.723100
C      1.363300   -1.649200   -1.060100
O      1.202200   -0.523800   -0.197400
H      0.876200    1.706200    0.338500
H     -1.286900   -1.436000    0.763800
H     -2.095500   -0.031400    0.060900
H     -2.516600   -1.754500   -1.540300
H     -1.169100   -0.889000   -2.242300
H     -1.219500   -3.607300   -0.848700
H     -0.521400   -3.198100   -2.424700
H      2.409600   -1.930000   -0.923100
H      1.195500   -1.338000   -2.102000
