17
gdb_16030
C     -0.034500    1.548200    0.036800
C      0.092900    0.040900    0.055200
C      1.340100   -0.740700   -0.227500
C      2.596800   -0.056700    0.324000
C      1.971400   -0.055300    1.754200
C      0.714600   -0.750400    1.194400
C      0.007600   -1.796100    1.856000
N     -0.560100   -2.645200    2.402500
H      0.855600    2.052700    0.419100
H     -0.199300    1.900700   -0.986800
H     -0.887000    1.870800    0.643000
H     -0.788500   -0.468400   -0.328600
H      1.340800   -1.557500   -0.939000
H      3.478900   -0.696300    0.266300
H      2.844700    0.914900   -0.112400
H      2.518500   -0.697000    2.445800
H      1.803600    0.913000    2.232800
