10
gdb_2609
C     -0.071100   -1.227300   -0.003800
C     -0.024300   -0.028600    0.002200
C      0.021400    1.433400    0.009500
C      1.381500    1.966200   -0.000600
C      2.502000    2.413400   -0.008900
C      3.769900    2.920800   -0.018200
N      4.847400    3.354100   -0.026200
H     -0.109600   -2.288900   -0.009200
H     -0.522100    1.829200   -0.859700
H     -0.505400    1.819800    0.893200
