15
gdb_8856
C     -0.240500    1.411000    0.127700
C      0.062900   -0.091700   -0.046700
C      0.833200   -0.388200   -1.333900
O      0.002800    0.012300   -2.410900
C      0.810000   -0.628900    1.153000
O      1.921800   -1.095400    1.135000
C      0.070700   -0.548400    2.436900
N     -0.513100   -0.493600    3.433600
H      0.687100    1.986500    0.212400
H     -0.785200    1.761800   -0.750000
H     -0.846700    1.598000    1.017600
H     -0.898600   -0.623900   -0.088400
H      1.786300    0.160900   -1.325300
H      1.074300   -1.459200   -1.382300
H      0.483300   -0.129300   -3.231400
