20
gdb_6471
C      0.629500    1.448300    0.180000
C      0.049700    0.054700    0.039300
C      0.368600   -0.748400   -1.240900
C      1.045600   -1.762400   -0.290100
C      0.387500   -3.127100   -0.166000
C      2.570200   -1.859300   -0.387700
O      3.111600   -2.322800    0.832400
O      0.731700   -0.923500    0.868900
H      1.689400    1.464600   -0.092600
H      0.093500    2.151000   -0.467700
H      0.535500    1.798000    1.213100
H     -1.019700    0.070500    0.288300
H     -0.495700   -1.128800   -1.787600
H      1.044800   -0.248500   -1.939000
H      0.511200   -3.696500   -1.094000
H      0.851300   -3.690600    0.647900
H     -0.681600   -3.024200    0.038800
H      2.866600   -2.570600   -1.167300
H      2.981100   -0.873200   -0.657900
H      2.722700   -1.755800    1.511700
