15
gdb_14288
O     -0.400400    1.500500   -0.309000
C     -0.130900    0.152500   -0.090300
C     -1.311800   -0.769300    0.131900
C     -2.665100   -0.244600   -0.310400
C     -2.511100    0.010900   -1.800900
N     -3.381100    0.516200   -2.558300
O     -1.261700   -0.395600   -2.222100
C     -0.498900   -0.871700   -1.136100
H      0.038800    1.772100   -1.122300
H      0.762800   -0.056000    0.497800
H     -1.256300   -1.519600    0.910300
H     -3.452900   -0.983900   -0.141700
H     -2.960000    0.681300    0.187300
H     -3.031800    0.586500   -3.515100
H      0.149400   -1.696300   -1.406000
