18
gdb_7744
C      0.050000    1.534400    0.060700
C     -0.013700    0.036100   -0.057000
C      0.008300   -0.595900   -1.233100
C     -0.046800   -2.091600   -1.397700
C      0.372300   -2.829600   -0.111900
C     -0.302100   -2.225100    1.104500
O     -0.924200   -2.877900    1.909200
C     -0.128800   -0.717400    1.251100
H      0.909500    1.847200    0.667900
H      0.132300    2.013200   -0.918400
H     -0.842700    1.930700    0.561600
H      0.062800   -0.006900   -2.146100
H     -1.062000   -2.399900   -1.687200
H      0.600600   -2.402200   -2.226000
H      0.145800   -3.897100   -0.152300
H      1.456700   -2.711300    0.020000
H      0.773200   -0.544400    1.860600
H     -0.962000   -0.339800    1.855700
