14
gdb_1493
C     -0.062500    1.528400   -0.031400
C      0.009200    0.009700    0.079300
N     -1.325600   -0.569500    0.031700
C     -1.511500   -1.917800   -0.014000
N     -0.540100   -2.747400   -0.117800
C     -2.909800   -2.323500    0.043000
N     -4.007000   -2.685100    0.094200
H      0.942800    1.955300    0.003500
H     -0.531700    1.834600   -0.971300
H     -0.635300    1.961700    0.796400
H      0.591100   -0.417900   -0.743100
H      0.519400   -0.290900    1.004800
H     -2.107300    0.005900    0.298100
H     -0.880200   -3.703300   -0.180800
