18
gdb_16555
C     -0.008000    1.521500    0.130400
C      1.417700    2.103700   -0.021900
C      2.178400    1.375800   -1.152300
O      2.215700   -0.012300   -0.802300
C      0.904900   -0.472300   -1.149700
C     -0.044700   -0.018400   -0.018900
C      0.624600    0.274500   -2.447300
C      1.379100    1.369300   -2.448900
H     -0.430200    1.813800    1.097200
H     -0.653400    1.965100   -0.633900
H      1.369600    3.183300   -0.207600
H      1.992400    1.956700    0.899400
H      3.206700    1.736100   -1.249000
H      0.934100   -1.561700   -1.244400
H      0.298500   -0.501300    0.902900
H     -1.070900   -0.358200   -0.202600
H     -0.122400   -0.019700   -3.173200
H      1.387200    2.170700   -3.176300
