13
gdb_400
C     -0.037400    1.500700    0.011600
C     -0.000200   -0.017600   -0.028300
C      0.746700   -0.690900   -1.134600
N      1.288600   -0.708600    0.229400
C     -1.163000   -0.664400    0.532700
C     -2.157200   -1.162900    0.988700
H      0.853400    1.920100   -0.467400
H     -0.919600    1.882700   -0.510900
H     -0.078600    1.859300    1.044900
H      0.405800   -1.653800   -1.501600
H      1.208900   -0.050600   -1.882200
H      2.020900   -0.007400    0.321100
H     -3.025100   -1.619400    1.395800
