21
gdb_15831
C     -0.409100    1.441500    0.214800
C      0.065500    0.004900   -0.016300
C      0.768800   -0.599000    1.203200
C      1.308300   -2.014100    0.959500
O      2.224700   -2.053200   -0.136300
C      1.922700   -2.606600    2.210800
C      1.159600   -3.576900    3.035900
N      2.310800   -4.022200    2.235200
H      0.431300    2.104200    0.450800
H     -0.908500    1.842900   -0.672500
H     -1.117000    1.499100    1.049500
H     -0.792100   -0.626500   -0.284600
H      0.749600   -0.034700   -0.870400
H      1.606900    0.047800    1.505000
H      0.083200   -0.627300    2.060600
H      0.482200   -2.662700    0.636400
H      3.023400   -1.584500    0.132100
H      2.637600   -1.954000    2.714500
H      1.305400   -3.615100    4.111700
H      0.156900   -3.840800    2.707400
H      1.994800   -4.469600    1.377100
