17
gdb_12492
O     -0.211800    0.823500    1.426700
C     -0.176800    1.302500    0.317700
C     -1.434500    1.266900   -0.573300
N     -1.540500    2.141600   -1.732800
C     -0.960500    3.465100   -1.540700
C      0.555700    3.509000   -1.845100
O      1.212200    2.297000   -1.522100
C      1.139900    1.934500   -0.165700
H     -1.552800    0.227200   -0.901600
H     -2.268100    1.451800    0.117400
H     -1.113700    1.699500   -2.538300
H     -1.463600    4.201200   -2.180500
H     -1.160400    3.774000   -0.507700
H      0.717900    3.635700   -2.920400
H      1.027900    4.362200   -1.331700
H      1.352900    2.788000    0.499600
H      1.925300    1.192800    0.012100
