14
gdb_4505
C      0.043800    1.442600    0.032400
C     -0.044000   -0.040300    0.003600
N     -1.108100   -0.780000    0.095000
C     -0.648400   -2.086200    0.003500
N     -1.532600   -3.164800    0.003900
C      0.699400   -2.064800   -0.141900
O      1.643400   -3.025600   -0.177300
O      1.104000   -0.741300   -0.137500
H      0.687000    1.786100    0.849400
H      0.461900    1.833700   -0.901500
H     -0.957500    1.851600    0.170600
H     -2.376500   -2.941100    0.515900
H     -1.113800   -4.011800    0.365600
H      1.963600   -3.143500   -1.081100
