13
gdb_627
C     -0.368000    1.476200    0.082100
C      0.170400    0.068400   -0.046200
O      0.560200   -0.574400    0.907500
C      0.202600   -0.519800   -1.424400
C      1.489600   -1.174000   -1.832100
N      0.318000   -1.981500   -1.529700
H      0.155500    2.150800   -0.604700
H     -1.426800    1.494400   -0.202200
H     -0.259900    1.827700    1.108400
H     -0.407600   -0.039300   -2.183600
H      1.782600   -1.143200   -2.877700
H      2.302200   -1.143700   -1.111500
H      0.407200   -2.330500   -0.573900
