15
gdb_16588
C     -0.128200    1.262100   -0.335200
N     -0.043200   -0.072600    0.226100
C     -1.077300   -1.105300    0.193400
C     -1.021600   -1.899700   -1.070200
O     -0.698500   -1.265400   -2.266500
C      0.011200   -2.168700    0.024100
C      0.985300   -0.990500    0.015900
O      2.165200   -0.844100   -0.149700
H      0.886800    1.663500   -0.385700
H     -0.558700    1.247800   -1.343000
H     -0.728400    1.912600    0.308100
H     -1.910800   -1.086000    0.884100
H     -1.777600   -2.683800   -1.154800
H     -0.044600   -1.799500   -2.730400
H      0.131700   -3.129000    0.505100
