16
gdb_17874
O     -0.022200    0.033600    0.004100
C     -0.031600    1.228500    0.001000
C     -1.117900    2.317300    0.095900
C     -0.034800    3.149600    0.858100
C      1.033900    2.355100    0.047300
O      1.197900    2.854300   -1.279900
C      0.044300    3.521500   -1.795000
C     -1.285900    2.888100   -1.335800
H     -2.068700    2.075200    0.572800
H     -0.048800    4.234500    0.745300
H      0.011100    2.892100    1.918600
H      2.027600    2.171700    0.457500
H      0.070500    4.577600   -1.493800
H      0.143400    3.494300   -2.883300
H     -1.596700    2.084500   -2.011400
H     -2.072900    3.650500   -1.354300
