18
gdb_11001
C     -0.044900    1.516700   -0.009600
C      0.022300    0.009200    0.005500
C     -0.774400   -0.770300    0.999200
C      0.751100   -0.759400    1.105400
C      1.445200   -1.918200    0.470700
O      2.337400   -2.570500    0.954500
C      0.876500   -2.092000   -0.948600
C      0.298400   -0.712300   -1.320700
H      0.878900    1.950800   -0.408100
H     -0.873600    1.863700   -0.638300
H     -0.201100    1.920000    0.995700
H     -1.293400   -0.214100    1.772500
H     -1.272000   -1.689000    0.705300
H      1.212100   -0.284800    1.962600
H      1.659300   -2.443600   -1.622800
H      0.106300   -2.872200   -0.924500
H     -0.600100   -0.776400   -1.943800
H      1.041400   -0.138200   -1.886400
