15
gdb_7752
N      0.029500    1.348700    0.170000
C     -0.077100   -0.025600    0.006300
N     -1.205400   -0.613900   -0.035600
C     -1.164900   -2.071800   -0.013300
C      0.014500   -2.651300   -0.809500
C      1.321100   -2.005800   -0.390700
O      2.404600   -2.543900   -0.374600
N      1.166300   -0.673200   -0.037600
H      0.717200    1.799400   -0.419500
H     -0.877400    1.792100    0.111100
H     -1.112900   -2.420800    1.029900
H     -2.107300   -2.451700   -0.418200
H      0.113000   -3.732500   -0.693200
H     -0.126000   -2.443400   -1.878700
H      2.001100   -0.185700    0.255900
