12
gdb_945
N     -0.015500    1.342900    0.133000
C      0.002600   -0.018100    0.049200
N     -1.191100   -0.638400    0.032400
C     -1.149600   -1.967300   -0.000400
C      0.038500   -2.690700   -0.020000
C      1.206600   -1.935300   -0.014000
N      1.212400   -0.605700    0.018500
H      0.840800    1.825300   -0.080100
H     -0.886900    1.801800   -0.070100
H     -2.112600   -2.474500   -0.014400
H      0.053000   -3.772300   -0.048000
H      2.182800   -2.416100   -0.039300
