17
gdb_11637
C     -0.151400    1.583100   -0.002200
C      0.023000    0.074600    0.012500
C      1.192300   -0.647400   -0.737700
C      2.166000   -0.159000    0.375500
C      0.881100   -0.648000    1.117300
C      0.907100   -1.884000    0.164000
C      0.637400   -0.646200    2.538000
N      0.432200   -0.634700    3.676400
H      0.782500    2.134500    0.128000
H     -0.592100    1.897600   -0.954200
H     -0.835300    1.893800    0.794500
H     -0.946400   -0.413300   -0.137400
H      1.376200   -0.652400   -1.811200
H      3.060600   -0.763800    0.538500
H      2.396100    0.904300    0.428300
H     -0.045200   -2.398600    0.017500
H      1.731600   -2.583600    0.315100
