15
gdb_13967
O      0.085800    0.428700    1.447000
C      0.043400    1.312700    0.624500
N      1.091800    1.732000   -0.152900
C      2.380100    1.151700   -0.133700
C      3.169600    0.943100    1.136200
C      3.763900    1.757700    0.031500
O      4.323800    0.916600   -0.977800
C      3.020500    0.339000   -1.260800
H     -0.869300    1.906600    0.414200
H      0.898300    2.448500   -0.837200
H      2.789900    1.505700    1.982000
H      3.577200   -0.035000    1.373400
H      4.122000    2.777900    0.108200
H      3.011600   -0.753000   -1.170400
H      2.677400    0.635000   -2.259800
