15
gdb_20733
C     -0.122500    1.471500   -0.027300
C     -0.041900   -0.020000    0.033500
N     -0.086200   -0.747300   -1.078000
N      0.011400   -2.043300   -0.651500
C      0.113800   -2.128100    0.687300
O      0.221000   -3.301200    1.331900
C      0.084800   -0.842200    1.187400
N      0.174200   -0.583600    2.586100
H      0.769600    1.941700    0.402900
H     -0.214500    1.794700   -1.066200
H     -0.986500    1.851900    0.530400
H      0.000900   -2.794100   -1.319100
H      0.277900   -3.064900    2.270800
H     -0.644000   -0.095900    2.938200
H      0.980700   -0.012100    2.818900
