10
gdb_23817
F     -0.024700    0.030200    0.004300
C     -0.024100    1.353700    0.011100
C     -1.187200    2.034500    0.029700
O     -1.274000    3.377000    0.037700
N     -0.130200    4.153500    0.026800
C      0.997400    3.532500    0.009000
C      1.237000    2.071000   -0.001500
O      2.349700    1.578700   -0.018700
H     -2.163300    1.564600    0.039900
H      1.868800    4.181900    0.000900
