22
gdb_5995
C      0.079600    1.552500    0.182000
C      0.002100    0.043800    0.003000
O      0.658500   -0.551400    1.105400
C      0.719300   -1.981400    1.162700
C     -0.677900   -2.608700    1.265800
C      1.509000   -2.567500   -0.016000
C      1.491700   -2.208600    2.472900
O      1.641700   -3.604400    2.684100
H      1.122300    1.880800    0.219800
H     -0.416700    2.062400   -0.649300
H     -0.406000    1.852900    1.115000
H     -1.049700   -0.274700   -0.050400
H      0.478400   -0.246900   -0.945300
H     -1.223400   -2.554300    0.319400
H     -0.586100   -3.661000    1.544700
H     -1.265000   -2.096400    2.034700
H      2.451400   -2.025500   -0.144600
H      1.738000   -3.616800    0.183800
H      0.947900   -2.514600   -0.953300
H      2.464900   -1.703300    2.391300
H      0.931300   -1.732100    3.290300
H      2.123800   -3.733400    3.505000
