11
gdb_3961
O      0.097400    1.334400   -0.299400
C      0.020600    0.027900    0.228100
C     -1.381600   -0.502200    0.168600
N     -1.982300   -1.111400    1.152800
O     -3.245200   -1.421800    0.619700
C     -3.247200   -0.946100   -0.623400
N     -2.143400   -0.370600   -0.977600
H     -0.343700    1.320300   -1.157200
H      0.681200   -0.670000   -0.311400
H      0.354100    0.066200    1.267500
H     -4.148700   -1.082600   -1.202600
