9
gdb_147
O     -0.297600    0.291100   -0.654100
C      0.223600    0.859300    0.269700
C      1.440100    1.716000    0.145100
C      1.503600    2.969700    0.928100
O      2.224900    1.822700    1.337300
H     -0.163400    0.795500    1.311700
H      1.990300    1.639100   -0.790500
H      2.095300    3.793000    0.532200
H      0.665800    3.251700    1.564600
