14
gdb_15732
O     -0.186300   -0.756200   -0.176900
C     -0.116900    0.447300   -0.181700
C      0.701000    1.230100    0.861000
C      1.985800    1.619600    0.294400
C      3.041700    1.911400   -0.198200
C     -0.833600    1.244900   -1.236100
C     -1.849500    2.246400   -0.847500
O     -0.572500    2.643000   -1.322700
H      0.154900    2.123700    1.183000
H      0.839200    0.571400    1.723400
H      3.976000    2.181900   -0.624100
H     -0.962300    0.719600   -2.180700
H     -2.686200    2.424600   -1.520300
H     -2.045300    2.441800    0.205900
