14
gdb_3145
O      0.051700    0.151200   -0.600200
C      0.014000    1.264700   -0.155900
C     -1.088400    2.183400    0.412300
C     -0.054700    3.359000    0.397700
C      1.038200    2.364600   -0.027200
C      2.436700    2.160100    0.446800
N      2.170200    2.597000   -0.921700
H     -1.964500    2.293100   -0.231600
H     -1.424200    1.876700    1.407100
H     -0.261600    4.112900   -0.364300
H      0.106600    3.853700    1.356900
H      2.882200    2.913700    1.090800
H      2.760900    1.137900    0.625600
H      2.246600    1.808400   -1.563300
