12
gdb_10448
N     -0.159600   -1.056300    0.500000
C     -0.074700    0.043200    0.158400
C      0.023900    1.436900   -0.274500
C      1.432500    2.005100   -0.128400
C      1.626000    3.416700    0.262000
O      1.828800    2.355900    1.192000
C      2.454700    1.365600   -0.940500
N      3.247500    0.863000   -1.613600
H     -0.296200    1.510100   -1.319800
H     -0.657700    2.045300    0.327400
H      2.523500    3.938200   -0.061300
H      0.746500    4.034800    0.433500
