12
gdb_11682
N     -0.032500    1.180400   -0.060700
C     -0.057500   -0.064000    0.024200
O      0.988700   -0.988600    0.176800
C      0.050900   -2.081900    0.014800
C     -0.940400   -2.060800    1.133400
C     -1.123500   -1.110700   -0.043500
C      0.411000   -3.185900   -0.808300
N      0.690400   -4.095300   -1.465800
H      0.916400    1.550500    0.008600
H     -1.647000   -2.883900    1.157100
H     -0.613300   -1.687700    2.098100
H     -1.998000   -1.109000   -0.676400
