17
gdb_16540
C      0.158600    1.635800    0.084400
C      0.122500    0.117600    0.040500
N      0.709300   -0.646000   -1.124100
C      2.036500   -0.136900   -1.619000
C      2.812600   -1.204300   -0.803000
C      1.448700   -1.582700   -0.182900
C      1.000100   -0.709600    1.003300
O      1.282200   -0.647100    2.163400
H      1.176200    2.033600    0.110700
H     -0.358800    2.059000   -0.782200
H     -0.350900    1.981500    0.988400
H     -0.919500   -0.217500    0.142700
H      2.118100   -0.229900   -2.705000
H      2.258200    0.899700   -1.350400
H      3.244600   -2.001000   -1.410900
H      3.570700   -0.844800   -0.104300
H      1.155900   -2.635700   -0.150900
