20
gdb_6845
C      0.033200    1.505400    0.061800
C     -0.053100   -0.017700   -0.022600
C     -1.522700   -0.470100   -0.043300
C      0.709200   -0.543400   -1.258400
C      1.072100   -1.997300   -1.114500
C      1.051500   -2.610300    0.065600
C      0.680000   -1.882900    1.324700
O      0.605400   -0.479700    1.168200
H      1.074900    1.816600    0.179200
H     -0.370300    1.966500   -0.845100
H     -0.532800    1.875200    0.921800
H     -2.061600    0.022700   -0.858500
H     -1.613400   -1.549900   -0.189900
H     -2.009100   -0.203700    0.899700
H      0.099600   -0.392500   -2.158400
H      1.619300    0.053900   -1.407500
H      1.357400   -2.538000   -2.013200
H      1.293900   -3.665300    0.163300
H     -0.267100   -2.289000    1.724900
H      1.437100   -2.054200    2.100600
