14
gdb_18696
O      0.008700    0.019300    0.265800
C     -0.011800    1.187800    0.000300
O     -1.201400    1.821100   -0.215400
C     -1.146300    3.080500   -0.893800
O     -0.305700    3.989400   -0.257800
C      1.026300    3.541700   -0.249900
C      1.521100    3.013900    1.054500
C      1.207100    2.052000   -0.091500
H     -0.835100    2.904800   -1.933700
H     -2.158500    3.483800   -0.858900
H      1.686600    4.101800   -0.906500
H      2.566500    3.137800    1.311000
H      0.827900    3.053100    1.886400
H      2.052000    1.560300   -0.557100
