21
gdb_12068
C      0.125100    1.505400   -0.112000
C     -0.009700   -0.003100    0.124900
C     -1.443400   -0.538300    0.051500
C     -2.351200    0.031900    1.142000
C     -2.148800   -0.496200   -1.367200
C     -2.273000   -2.020200   -1.311800
N     -0.885000   -2.542500   -1.233400
C     -1.570400   -2.078400   -0.004100
H      1.177900    1.804900   -0.109800
H     -0.297200    1.795700   -1.080400
H     -0.383100    2.092000    0.660000
H      0.587100   -0.545200   -0.615100
H      0.408500   -0.255400    1.109600
H     -2.490000    1.111200    1.025700
H     -3.342100   -0.434600    1.111200
H     -1.929100   -0.147200    2.138300
H     -3.107100    0.027700   -1.339400
H     -1.549000   -0.118400   -2.199200
H     -3.071300   -2.639300   -1.702600
H     -0.946200   -3.560500   -1.240400
H     -1.710300   -2.747100    0.838400
