13
gdb_5148
C     -0.484900   -0.751700   -1.010100
C     -0.128700    0.080200   -0.220000
C      0.310300    1.092200    0.734300
C      1.556700    1.814200    0.311900
C      2.319800    1.672400   -0.797300
O      3.353800    2.566400   -0.717900
C      3.150400    3.205400    0.453700
N      2.110100    2.812200    1.111300
H     -0.809400   -1.489700   -1.701200
H     -0.490200    1.826700    0.893800
H      0.481300    0.630300    1.715700
H      2.281800    1.043600   -1.668300
H      3.863800    3.968800    0.722000
