16
gdb_16351
C     -0.517500    1.386500    0.010500
C      0.070600   -0.016600   -0.034000
C      1.411000   -0.230800   -0.814100
C      1.970100   -0.990200    0.408500
O      2.931200   -1.671000    0.614100
C      0.763200   -0.562600    1.232900
C      0.778500   -0.040000    2.610900
O      0.165200   -1.285400    2.287000
H      0.228600    2.117400    0.341400
H     -0.873000    1.694600   -0.977900
H     -1.368300    1.436800    0.698100
H     -0.682800   -0.736400   -0.370000
H      1.364000   -0.808700   -1.739700
H      1.961300    0.696400   -1.006300
H      1.695000   -0.106800    3.194700
H      0.096400    0.765900    2.877000
