17
gdb_17008
C     -0.039200    1.562600   -0.134600
C      1.526700    1.591800   -0.149300
C      1.525100    0.071000    0.117700
C      1.981300   -0.744800    1.299900
O      0.818100   -1.472900    1.719600
C     -0.379100   -0.788800    1.322100
C      0.024000    0.043100    0.131800
N      0.778900   -0.683700   -0.883100
H     -0.456800    2.124000    0.704200
H     -0.563100    1.862700   -1.047300
H      2.021900    1.910800   -1.071600
H      1.938900    2.168600    0.681700
H      2.754200   -1.488800    1.085400
H      2.346800   -0.073700    2.094000
H     -1.127700   -1.561000    1.121900
H     -0.754400   -0.131400    2.123200
H      0.761600   -0.212700   -1.784600
