18
gdb_8201
C     -0.116600    1.509100   -0.009100
C      0.151700    0.028800   -0.004500
C      0.441400   -0.693300   -1.324300
C      1.239700   -1.905800   -0.897000
C      1.457800   -1.921600    0.418800
C      0.802400   -0.745300    1.080200
C      1.298300   -0.220300    2.397800
O     -0.641000   -0.762000    0.894300
H      0.707700    2.054100   -0.481400
H     -1.029800    1.729600   -0.573600
H     -0.253000    1.889200    1.005600
H     -0.488000   -0.969000   -1.837900
H      1.007400   -0.053200   -2.014200
H      1.554300   -2.671500   -1.597200
H      2.001700   -2.680700    0.968800
H      2.367400    0.011600    2.344800
H      0.757900    0.680800    2.695200
H      1.157400   -0.970000    3.184500
