14
gdb_794
C     -0.150300    1.563500   -0.035400
C     -0.026900    0.065000   -0.037800
C     -0.049400   -0.668100    1.284800
C      1.263600   -0.436700    2.019700
O      1.388800    0.268000    2.986800
N      0.116200   -0.666500   -1.077300
O      0.132400    0.091100   -2.255100
H      0.445100    2.002600   -0.837900
H     -1.193300    1.857300   -0.205000
H      0.161200    1.975900    0.927200
H     -0.866400   -0.304700    1.915600
H     -0.165800   -1.738800    1.092500
H      2.134700   -0.958000    1.563500
H      0.262500   -0.584700   -2.928800
