18
gdb_17254
C     -0.057300    1.464400    0.012900
C      1.276600    0.720900    0.023600
C     -0.012500   -0.024900   -0.079300
O     -0.456100   -0.804800    1.037500
C     -1.072200   -1.919700    0.365300
C     -0.043500   -2.287100   -0.734700
C     -0.476600   -0.874500   -1.248500
C     -1.912100   -1.245600   -0.749700
H     -0.394100    1.890300    0.951500
H     -0.324400    2.036400   -0.870100
H      1.914300    0.788500   -0.852100
H      1.804500    0.664800    0.969200
H     -1.467000   -2.617500    1.101400
H      0.993300   -2.427900   -0.422000
H     -0.375400   -3.096500   -1.387100
H     -0.266200   -0.511500   -2.253300
H     -2.418000   -1.958000   -1.403500
H     -2.580800   -0.435700   -0.450700
