12
gdb_2809
C     -0.092000   -1.211000   -0.006800
C     -0.045600   -0.010400    0.016600
C      0.001400    1.420400    0.036800
C      0.486600    2.158100    1.262000
C      1.349400    2.161100    0.018900
C      2.580100    1.423300   -0.004800
N      3.580600    0.843800   -0.030000
H     -0.121300   -2.272400   -0.027000
H     -0.772000    1.915900   -0.542600
H     -0.004000    3.087300    1.526000
H      0.825900    1.556600    2.095700
H      1.371300    3.074800   -0.565100
