19
gdb_7609
C     -0.203100    1.595900    0.342800
C     -0.145300    0.089800    0.269600
N      0.994400   -0.530100   -0.395300
C      0.835600   -0.755400    1.052300
C      1.886700   -0.148100    1.957700
C      0.267900   -2.106900    1.417700
C      0.332500   -2.547700    2.865800
O     -0.237100   -2.809600    0.564100
H      0.790300    2.036100    0.445700
H     -0.646500    1.993500   -0.576600
H     -0.824000    1.925300    1.182700
H     -1.109200   -0.392300    0.110900
H      0.679800   -1.380300   -0.864900
H      2.256200    0.787900    1.537600
H      1.495600    0.055900    2.959600
H      2.747200   -0.818200    2.060500
H     -0.125600   -1.798100    3.520200
H     -0.183400   -3.501800    2.976100
H      1.373700   -2.655200    3.188200
