14
gdb_5665
C     -0.077200    1.520900    0.011000
C      1.412400    1.877000   -0.001400
C      2.187600    0.773500   -0.014800
C      1.312100   -0.397500   -0.012700
C      0.009300    0.030200    0.002100
N     -0.749700   -1.108200    0.003400
C      0.141900   -2.161600   -0.011000
N      1.398700   -1.766700   -0.020900
H     -0.578100    1.930300    0.898300
H     -0.595000    1.939800   -0.862000
H      1.754300    2.903200    0.000900
H      3.269400    0.751000   -0.025300
H     -1.752800   -1.186400    0.012600
H     -0.199400   -3.186200   -0.013300
