11
gdb_734
C     -0.025800    1.487700    0.031100
C     -0.004600   -0.001800   -0.041200
N     -0.083300   -0.740200   -1.136300
C     -0.020100   -2.014600   -0.657400
N      0.092700   -2.121300    0.654400
N      0.100800   -0.817900    1.032300
H      0.891000    1.882700    0.481400
H     -0.114800    1.885200   -0.980300
H     -0.872400    1.850600    0.623700
H     -0.057800   -2.885500   -1.294500
H      0.178800   -0.583300    2.008200
