16
gdb_21305
C     -0.711500    1.471300   -0.478700
O     -0.667600    0.075000   -0.667900
C     -0.685600   -0.646700    0.547400
C     -0.735000   -2.105500    0.224300
C     -0.419500   -3.240200    0.946400
C     -0.742000   -4.309700    0.083500
N     -1.213900   -3.883500   -1.085100
N     -1.209400   -2.542300   -0.966700
H     -0.701200    1.933700   -1.468100
H     -1.624500    1.781300    0.052800
H      0.158800    1.830000    0.091700
H      0.205000   -0.422400    1.156300
H     -1.564300   -0.349600    1.147200
H     -0.017200   -3.285800    1.945700
H     -0.643400   -5.369900    0.265700
H     -1.473900   -1.958700   -1.742400
