18
gdb_18453
C      0.011300    1.381000    0.331100
C     -0.000700   -0.042100   -0.238600
C     -1.368500   -0.691600   -0.128300
C     -1.664200   -2.150200   -0.117200
C     -0.573200   -2.947700    0.613900
C     -0.900200   -2.099700    1.873500
O     -0.575900   -2.194600    3.023700
C     -1.941800   -1.293400    1.157000
H      0.997500    1.841500    0.221100
H     -0.714700    2.019900   -0.184000
H     -0.243600    1.378200    1.395600
H      0.290600   -0.019000   -1.296900
H      0.755800   -0.644100    0.274100
H     -2.141600   -0.118600   -0.640100
H     -2.415900   -2.594900   -0.756600
H     -0.852100   -3.989100    0.800600
H      0.442700   -2.919900    0.211700
H     -2.871300   -0.933700    1.581400
