12
gdb_3762
C      0.081200    1.412400   -0.051200
N      0.082200   -0.028800   -0.009800
N      0.184500   -0.781600   -1.158600
C      0.153000   -2.009200   -0.744900
N      0.035400   -2.089900    0.617400
C     -0.014300   -0.790300    1.138500
O     -0.115600   -0.436900    2.295100
H      1.011800    1.788800   -0.486000
H     -0.763200    1.783200   -0.639600
H     -0.009100    1.758800    0.979600
H      0.212300   -2.868300   -1.394100
H     -0.011600   -2.914300    1.189800
