10
gdb_3902
O     -0.029700   -0.056000    0.003300
C      0.024500    1.149400    0.008800
N     -1.166700    1.909600    0.028700
N     -1.286900    3.230500    0.037000
C     -0.163200    3.891200    0.025300
C      1.088100    3.197700    0.005000
N      1.199900    1.905200   -0.003100
H     -2.034700    1.388800    0.037600
H     -0.227300    4.972100    0.031700
H      2.011800    3.777800   -0.004400
