10
gdb_21376
N     -0.046700    1.350400    0.010200
C      1.285300    1.760000   -0.000700
N      2.174300    0.804200   -0.014600
C      1.394500   -0.339300   -0.013000
N      1.532000   -1.639000   -0.021400
O      0.236400   -2.105400   -0.011100
N     -0.728500   -1.088400    0.003800
C      0.009700   -0.020200    0.002300
H     -0.857700    1.944700    0.021800
H      1.524400    2.815200    0.002600
