10
gdb_958
O      0.106500    1.300900    0.121100
C      0.070200   -0.027300    0.060700
N      0.090800   -0.593200   -1.151800
C      0.051800   -1.922600   -1.128300
N     -0.003300   -2.687400   -0.037800
C     -0.018100   -1.992300    1.103100
N      0.016200   -0.669200    1.227100
H      0.143500    1.618900   -0.792400
H      0.066600   -2.428900   -2.091100
H     -0.062700   -2.564400    2.027300
