20
gdb_15403
C     -0.180500    1.550400    0.077000
C     -0.175200    0.030100   -0.101300
C      0.897500   -0.451700   -1.088500
C      0.904400   -1.961000   -1.235200
C      0.064800   -2.662800   -2.248200
C      1.584300   -2.694100   -2.396000
C      2.204000   -1.959000   -3.518900
O      3.218700   -2.298700   -4.078300
H      0.785000    1.908200    0.451200
H     -0.375200    2.060400   -0.873000
H     -0.950800    1.865600    0.787400
H     -0.013100   -0.454100    0.870800
H     -1.160200   -0.307400   -0.447500
H      0.728800    0.027000   -2.060400
H      1.884400   -0.111300   -0.747700
H      1.027400   -2.485200   -0.290000
H     -0.426700   -3.595300   -1.996400
H     -0.477600   -2.049500   -2.962400
H      2.095800   -3.619100   -2.152800
H      1.652600   -1.047300   -3.845000
