20
gdb_12686
C      0.058000    1.492200   -0.058900
C     -0.039800   -0.002000   -0.078300
C     -1.123600   -0.765800    0.124200
C     -2.533700   -0.351200    0.411700
C     -0.810000   -2.237400   -0.064900
O     -1.456300   -2.764300   -1.230700
C      0.735900   -2.287100   -0.119300
C      1.193800   -0.832400   -0.370900
H      0.761300    1.828200    0.714100
H      0.446600    1.870800   -1.013300
H     -0.903000    1.976200    0.129700
H     -2.676900    0.731300    0.370600
H     -3.216700   -0.817800   -0.307200
H     -2.848100   -0.693000    1.406700
H     -1.206400   -2.858000    0.746800
H     -1.235800   -2.178400   -1.963800
H      1.126600   -2.642200    0.839100
H      1.068400   -2.992300   -0.885200
H      1.539900   -0.665400   -1.401200
H      2.036400   -0.547200    0.271500
