16
gdb_3186
C     -0.042300    1.522000   -0.082900
C     -0.016200    0.009700   -0.048700
C      1.139700   -0.722200   -0.589400
O      0.967700   -0.565300    0.825000
C     -1.364700   -0.655200    0.018200
C     -1.514000   -2.027800    0.550600
N     -1.991600   -0.872900    1.336200
H      0.972500    1.926700   -0.077500
H     -0.557200    1.877800   -0.981600
H     -0.578200    1.916500    0.786600
H      1.007300   -1.735900   -0.963100
H      1.977100   -0.171300   -1.015900
H     -2.065500   -0.310100   -0.739900
H     -2.295400   -2.674900    0.162900
H     -0.615000   -2.532300    0.890900
H     -1.296200   -0.676400    2.054900
