18
gdb_12014
C     -0.024700    1.542500   -0.034400
C      0.018400    0.015400    0.013300
O     -1.305200   -0.522900    0.073800
C      0.816700   -0.605400   -1.165600
O      1.365100   -1.834400   -0.706300
C      1.512400   -1.742800    0.687600
C      2.243300   -0.551400    1.250100
C      0.724500   -0.583800    1.219900
H      0.978300    1.973300    0.031200
H     -0.478800    1.893700   -0.969900
H     -0.623000    1.925000    0.797000
H     -1.811200   -0.145800   -0.653700
H      0.171800   -0.816400   -2.024200
H      1.614300    0.076700   -1.495700
H      1.568700   -2.716600    1.157900
H      2.709100   -0.667600    2.222600
H      2.782600    0.106000    0.576200
H      0.159600   -0.627500    2.142600
