10
gdb_2493
C     -0.018900   -1.226400    0.020700
C      0.003000   -0.028400   -0.013800
C      0.021900    1.440500   -0.034400
C      1.386400    1.984800   -0.016900
C      2.496700    2.435300    0.015800
C     -0.738500    1.961400   -1.192400
N     -1.345100    2.377000   -2.081800
H     -0.035500   -2.288600    0.043700
H     -0.502200    1.802000    0.864000
H      3.482300    2.831700    0.039000
