16
gdb_9064
C      0.014400    1.387300   -0.221100
C      0.047900   -0.126600   -0.015300
O      0.699800   -0.546100    1.169900
C      2.112900   -0.439300    1.130600
C      2.685600   -1.072300    2.310800
C      3.183900   -1.584500    3.275500
C     -1.355600   -0.723700    0.062400
O     -2.293800   -0.322500   -0.573200
H      1.002400    1.786600   -0.463200
H     -0.667200    1.617800   -1.043300
H     -0.353300    1.880100    0.683400
H      0.528900   -0.604700   -0.890800
H      2.504600   -0.924800    0.220400
H      2.429600    0.614200    1.090900
H      3.619100   -2.040100    4.130500
H     -1.426700   -1.587200    0.758200
