10
gdb_21838
O      0.424700   -0.202200   -0.006700
C      0.091900    0.939700    0.002800
O      1.038700    1.942000   -0.000600
C      0.594000    3.258200    0.010600
C      1.751600    4.123900    0.008100
N      1.541600    5.415800    0.016900
N      1.339900    6.524800    0.023700
O     -0.563600    3.589600    0.020800
H     -0.932800    1.329200    0.014700
H      2.775500    3.786000   -0.000100
