15
gdb_4976
C     -0.011500    1.506400   -0.023600
C     -0.001800    0.003500    0.002100
N     -0.060000   -0.644700   -1.162500
C     -0.040100   -1.977400   -1.131200
N      0.028600   -2.742000   -0.042800
C      0.081100   -2.095500    1.119800
C      0.072700   -0.702300    1.219400
N      0.196300   -0.049600    2.442700
H      0.863600    1.916400    0.494700
H     -0.011700    1.852700   -1.057400
H     -0.901700    1.913100    0.475900
H     -0.085300   -2.488400   -2.089000
H      0.135500   -2.705600    2.021600
H     -0.024100   -0.618000    3.248400
H     -0.245300    0.856500    2.497600
