18
gdb_10689
C      0.245900    1.419300    0.331200
C     -0.079500   -0.031000   -0.030600
O     -1.475200   -0.227400   -0.198100
C      0.694900   -0.517200   -1.261400
C      2.117000   -1.018500   -1.065800
C      1.018400   -1.998700   -1.356800
C      0.364000    0.177700   -2.477200
C      0.033800    0.775300   -3.469300
H      1.308800    1.539700    0.564200
H      0.005900    2.086900   -0.503000
H     -0.341900    1.724600    1.200700
H      0.198200   -0.682100    0.807100
H     -1.734100    0.247000   -0.997800
H      2.837200   -0.801900   -1.845600
H      2.514700   -0.973300   -0.057200
H      0.653600   -2.627100   -0.551900
H      0.986000   -2.454600   -2.339000
H     -0.233500    1.295800   -4.355500
