20
gdb_19395
C     -0.130600    1.569200   -0.045000
C      0.049200    0.056900    0.004900
C      1.091900   -0.604300   -0.917800
C      2.500000   -0.248500   -0.522200
C      1.761100   -1.283000    0.281300
C      0.777700   -0.598400    1.209500
C      1.053200   -0.017300    2.567100
C      0.122600   -1.202400    2.411900
H      0.822700    2.094200    0.069400
H     -0.570700    1.877100   -0.999900
H     -0.798200    1.915600    0.752300
H     -0.922600   -0.430800   -0.133700
H      0.871500   -1.026400   -1.891100
H      3.269800   -0.632700   -1.184500
H      2.735700    0.717300   -0.082400
H      2.108300   -2.305200    0.377900
H      2.029700   -0.185300    3.010600
H      0.611600    0.943300    2.813800
H     -0.941800   -1.040100    2.554300
H      0.471300   -2.172800    2.752100
