20
gdb_13190
C     -0.390700    1.457400    0.184600
C     -0.097300   -0.015400   -0.086600
C      0.747400   -0.258700   -1.329500
O      1.218900    0.653600   -1.973500
C      0.933600   -1.703700   -1.747500
C     -0.029900   -2.206000   -2.882300
C      1.177200   -2.930600   -3.533100
C      2.124200   -2.046200   -2.680700
H      0.537700    2.024800    0.284300
H     -0.953700    1.902000   -0.640500
H     -0.972500    1.575800    1.103100
H      0.434400   -0.475800    0.759000
H     -1.022300   -0.600900   -0.186200
H      0.875200   -2.367100   -0.879300
H     -0.889400   -2.807000   -2.577000
H     -0.378700   -1.369000   -3.493300
H      1.222900   -3.982800   -3.238300
H      1.270200   -2.871100   -4.619800
H      2.443100   -1.146500   -3.211800
H      2.994600   -2.522300   -2.223700
