15
gdb_17419
C      0.007200    1.583800    0.067200
C      0.003300    0.087100    0.049000
C     -1.264700   -0.782200    0.218000
C     -0.309400   -1.786600    0.843100
C      0.991800   -1.793800    0.094200
N      0.704600   -0.764400    1.193800
C      0.882600   -0.710200   -0.924000
O      1.442700   -0.439000   -1.947900
H      1.030100    1.970500    0.057500
H     -0.505100    1.964400   -0.822900
H     -0.506100    1.970600    0.952400
H     -1.934500   -0.365900    0.975800
H     -1.833500   -1.048700   -0.677900
H     -0.541000   -2.598400    1.524400
H      1.740000   -2.566700    0.212200
