18
gdb_16776
O      0.130000    1.110400   -0.511600
C     -0.079400   -0.280400   -0.296600
C     -1.510700   -0.466600    0.208300
C     -2.564000   -0.045400   -0.855800
C     -3.016400   -1.341800   -1.493700
O     -1.933200   -2.186700   -1.920400
C     -2.577300   -2.473800   -0.669800
C     -1.818400   -1.956200    0.535400
H      0.960900    1.218000   -0.982700
H      0.060000   -0.857100   -1.220000
H      0.623900   -0.669500    0.458100
H     -1.612200    0.153300    1.103900
H     -3.429600    0.439100   -0.388600
H     -2.141300    0.665000   -1.571300
H     -3.903100   -1.378400   -2.122300
H     -3.108800   -3.421700   -0.629000
H     -0.909400   -2.534900    0.733900
H     -2.456700   -2.044400    1.422400
