17
gdb_15643
C     -0.014000    1.567400   -0.072800
C     -0.038800    0.041600    0.044100
N     -1.383100   -0.510200    0.041800
C     -2.129000   -0.917800    1.136600
N     -3.299800   -1.374400    0.903500
C     -3.455400   -1.296800   -0.555800
C     -2.150200   -0.712200   -1.102000
N     -1.729700   -0.429800   -2.270000
H      1.019600    1.927100   -0.075300
H     -0.490200    1.880700   -1.004600
H     -0.538400    2.037200    0.765300
H      0.496200   -0.404400   -0.799900
H      0.453700   -0.286900    0.965300
H     -1.691600   -0.838900    2.127400
H     -3.651900   -2.290900   -0.973900
H     -4.312100   -0.664400   -0.816500
H     -2.431300   -0.662600   -2.971000
