14
gdb_1055
O      0.530400    0.089100    0.994700
C     -0.135100    0.298400   -0.252000
C     -1.510000   -0.267900   -0.143900
C     -2.714400    0.115200   -0.691800
C     -3.687600   -0.847300   -0.300800
C     -3.048400   -1.782600    0.479900
N     -1.725800   -1.429200    0.554000
H      1.463800    0.284300    0.868900
H     -0.203000    1.366300   -0.505800
H      0.430200   -0.192100   -1.062700
H     -2.875400    0.985300   -1.310500
H     -4.735500   -0.847900   -0.558700
H     -3.421400   -2.653400    0.994700
H     -1.021500   -1.856700    1.130600
