14
gdb_2253
C     -0.060400    1.568200    0.041300
C      0.116400    0.083800    0.004600
N     -0.791300   -0.856500    0.755900
C      0.658000   -0.928400    0.986600
C      1.196200   -1.844100   -0.119800
C      0.690500   -0.759800   -1.118200
O      0.885400   -0.553500   -2.280300
H      0.813400    2.072500   -0.382600
H     -0.935500    1.872100   -0.542800
H     -0.197200    1.924900    1.067800
H     -1.199200   -0.291300    1.502700
H      1.097300   -0.735400    1.956700
H      2.286000   -1.923100   -0.164900
H      0.739700   -2.833900   -0.180700
