10
gdb_127
O     -0.079500    1.430700    0.010400
C      0.043100    0.022400    0.001600
C     -1.389100   -0.527700    0.012400
C     -1.420500   -1.986300    0.004700
N     -1.425400   -3.141600   -0.001600
H      0.802600    1.813400    0.004900
H      0.568100   -0.341300   -0.893500
H      0.585200   -0.350900    0.882500
H     -1.910800   -0.155900    0.900500
H     -1.927700   -0.146100   -0.861300
