15
gdb_9599
C     -0.156900    1.599400    0.012300
C      0.027300    0.101100   -0.023200
N      1.317800   -0.434700   -0.472400
C      0.942500   -0.663000    0.920000
C      1.741500    0.060600    1.955700
O      1.776200   -0.276800    3.110700
C     -1.174600   -0.699900   -0.417100
O     -2.255900   -0.232100   -0.657800
H      0.793200    2.109200    0.176100
H     -0.575200    1.939800   -0.938700
H     -0.858700    1.882000    0.801300
H      1.203400   -1.287300   -1.019000
H      0.608900   -1.650600    1.234000
H      2.312800    0.931100    1.571800
H     -0.977800   -1.797300   -0.491900
