12
gdb_20519
C     -0.015100    1.480600   -0.092500
C     -0.022700   -0.024100    0.036200
O     -0.047300   -0.616300    1.085600
C      0.000800   -0.804000   -1.249500
N      0.000000   -2.095100   -1.411500
C      0.026900   -2.205000   -2.775200
N      0.044500   -1.070200   -3.427300
O      0.026200   -0.124000   -2.408400
H      0.875700    1.813100   -0.635900
H     -0.880700    1.818900   -0.671900
H     -0.034100    1.923000    0.903300
H      0.034800   -3.150200   -3.297800
