16
gdb_11662
C     -0.027400    1.528300    0.020100
C     -0.014200   -0.005800    0.034300
C     -1.385600   -0.586900   -0.099900
C     -1.895800   -2.050600   -0.002900
C     -3.161000   -1.165000    0.031200
O     -2.431600   -0.224600    0.920400
C     -2.543300   -0.317600   -1.110500
O     -2.814300    0.301100   -2.086700
H      0.985900    1.924300    0.127500
H     -0.446400    1.905500   -0.917200
H     -0.636800    1.915400    0.841000
H      0.591400   -0.392800   -0.794600
H      0.442600   -0.380100    0.958400
H     -1.739500   -2.720700   -0.852500
H     -1.676200   -2.513300    0.961000
H     -4.186300   -1.413400    0.294100
