20
gdb_6718
C     -0.007200    1.590300    0.007200
C     -0.000900    0.062900   -0.050400
O      0.860700   -0.488400    0.944900
C     -1.413600   -0.530700    0.042000
C     -1.432200   -2.056600   -0.088400
C     -2.836700   -2.657700    0.088100
C     -2.811600   -4.168000    0.046500
O     -3.467600   -4.853300   -0.694700
H      1.014500    1.976200   -0.041300
H     -0.581000    2.017300   -0.821600
H     -0.462600    1.941900    0.942000
H      0.450400   -0.255300   -0.999100
H      0.568900   -0.151800    1.799800
H     -1.857100   -0.235700    1.005400
H     -2.043900   -0.079400   -0.735100
H     -1.037600   -2.341800   -1.072200
H     -0.745600   -2.480700    0.652900
H     -3.231400   -2.363600    1.072500
H     -3.534200   -2.298900   -0.674900
H     -2.106700   -4.630600    0.778200
