17
gdb_20005
O     -0.366300    0.440600    0.774400
C      0.263200    0.747700   -0.207200
C      1.383100    1.726900   -0.196300
N      2.340900    1.620400   -1.319000
C      1.505900    2.809400   -1.240700
C      0.512700    3.047200   -2.331400
C     -0.433800    4.218800   -2.233000
C      0.685100    4.240100   -3.241400
H      0.051200    0.306500   -1.205300
H      1.748000    1.968200    0.799300
H      3.286100    1.798000   -0.991700
H      1.965500    3.723500   -0.861300
H      0.129400    2.143800   -2.792800
H     -1.450200    4.085300   -2.585100
H     -0.347800    4.866400   -1.366400
H      1.524600    4.902200   -3.054800
H      0.441600    4.119200   -4.290800
