17
gdb_4564
C      0.013300    1.533600    0.010300
C     -0.011400    0.024600    0.002300
C     -0.017200   -0.696500   -1.194600
C     -0.009400   -2.086000   -1.210300
C      0.001500   -2.813000   -0.013200
N     -0.057800   -4.211200   -0.020500
C      0.004300   -2.099000    1.191700
C     -0.003600   -0.709500    1.191200
H      1.039300    1.923900    0.002400
H     -0.494300    1.946700   -0.867000
H     -0.477200    1.936900    0.901600
H     -0.027400   -0.160300   -2.139700
H     -0.020500   -2.617200   -2.158000
H      0.312600   -4.639500   -0.856900
H      0.322100   -4.648600    0.806900
H      0.004000   -2.640500    2.133600
H     -0.002900   -0.183600    2.142100
