19
gdb_16420
C     -0.569800    1.413000    0.095800
C      0.093800    0.044300   -0.027200
C      0.902700   -0.068700   -1.350300
O      1.994600   -0.986500   -1.268900
C      2.542200   -1.088600    0.037500
C      1.473000   -1.642400    0.998800
N      0.950400   -0.231800    1.154400
C      2.358800    0.222700    0.834200
H      0.180600    2.209200    0.157300
H     -1.205900    1.619500   -0.772000
H     -1.184000    1.456900    0.998400
H     -0.687700   -0.724800   -0.012900
H      0.267700   -0.408000   -2.174200
H      1.284800    0.925600   -1.625700
H      3.520600   -1.565900   -0.063200
H      0.761500   -2.364800    0.589800
H      1.870300   -2.001000    1.953600
H      2.953800    0.246900    1.750900
H      2.455400    1.180100    0.317300
