17
gdb_10972
C      0.033400    1.548000    0.057300
C      0.022100    0.044600    0.030800
C      0.541900   -0.712800   -1.224100
C      0.391500   -2.189700   -0.718100
C     -0.175300   -1.897600    0.694600
N      0.617500   -0.722500    1.188500
C     -1.224300   -0.819000    0.351000
O     -2.405700   -0.676800    0.388900
H      1.045100    1.941000   -0.093300
H     -0.601300    1.944900   -0.741400
H     -0.342500    1.920300    1.013600
H     -0.051300   -0.504700   -2.119400
H      1.580100   -0.440800   -1.439900
H     -0.284900   -2.788700   -1.334500
H      1.348500   -2.716200   -0.659700
H     -0.357700   -2.723100    1.380000
H      1.622700   -0.865700    1.077100
