16
gdb_18771
C     -0.017600    1.443900    0.017500
C      0.014000   -0.052800   -0.026000
C     -0.946000   -0.968400    0.738800
C      0.549200   -1.067600    0.963300
C      0.584400   -2.102000   -0.202000
C     -0.977900   -2.153200   -0.263600
O     -1.008400   -1.599400   -1.599300
C      0.255500   -0.991600   -1.248500
H      0.941800    1.875600   -0.289500
H     -0.792500    1.839700   -0.649100
H     -0.232800    1.805500    1.028600
H     -1.720700   -0.586200    1.389900
H      1.140900   -0.947800    1.859200
H      1.254600   -2.943300   -0.357400
H     -1.627400   -3.014800   -0.117000
H      0.855800   -0.671400   -2.099600
