18
gdb_14626
O     -0.719500    0.931700    0.853400
C     -0.016800    1.052200   -0.116000
C      1.305700    1.784500   -0.145200
C      1.315200    2.905200   -1.199300
C      2.679400    3.593200   -1.319200
C      2.688800    4.713900   -2.373400
C      4.011500    5.445900   -2.402400
O      4.715000    5.565200   -3.371400
H     -0.317900    0.616300   -1.098600
H      1.513000    2.171100    0.857000
H      2.085200    1.049900   -0.396000
H      1.028200    2.492100   -2.175300
H      0.551200    3.650300   -0.943800
H      2.966300    4.006200   -0.343200
H      3.443400    2.848000   -1.574800
H      2.481700    4.327000   -3.375600
H      1.909400    5.448500   -2.122700
H      4.312000    5.882600   -1.420000
