17
gdb_11506
C     -0.276000    1.476900    0.128300
C      0.092400   -0.003600   -0.090400
C      0.984700   -0.245100   -1.335300
C      0.278600    0.111200   -2.621900
C      0.308300   -0.773200   -3.793400
O     -0.848900   -0.704200   -2.958000
C      0.754400   -0.543000    1.101500
N      1.290000   -0.960500    2.036900
H      0.623300    2.089200    0.243000
H     -0.850000    1.854400   -0.721200
H     -0.884600    1.595100    1.027800
H     -0.829600   -0.579500   -0.237100
H      1.906800    0.341200   -1.245500
H      1.271300   -1.300700   -1.362200
H      0.118500    1.174700   -2.803600
H      0.189900   -0.354600   -4.791500
H      0.865300   -1.707800   -3.743700
