13
gdb_20709
C     -0.038200    1.481800   -0.067600
C      0.004600   -0.007500    0.022500
N     -0.040000   -0.788200   -1.043200
N      0.021500   -2.037300   -0.537500
C     -0.002600   -3.152000   -1.403400
O      0.048100   -4.287700   -1.037900
N      0.103700   -2.111800    0.799200
C      0.094600   -0.846700    1.171500
H      0.858800    1.928400    0.373900
H     -0.104300    1.792700   -1.111600
H     -0.902100    1.883800    0.471800
H     -0.073500   -2.800500   -2.445200
H      0.150600   -0.575800    2.215000
