17
gdb_12354
C      0.027400    1.541700   -0.044300
C      0.017800    0.028000    0.053600
O      0.648800   -0.477600   -1.149700
C      1.118300   -1.745900   -1.103300
N      1.201200   -2.540500   -0.121700
C      0.753900   -2.058700    1.186500
C      0.745200   -0.531000    1.285200
O      2.058200   -0.000900    1.402900
H      1.052100    1.914000    0.014700
H     -0.421200    1.865700   -0.986800
H     -0.547000    1.972700    0.781500
H     -1.015000   -0.347300    0.060000
H      1.467900   -2.045800   -2.090300
H     -0.245100   -2.463500    1.393800
H      1.423300   -2.466900    1.951100
H      0.213600   -0.206300    2.186200
H      2.611400   -0.426700    0.738200
