20
gdb_8244
C      0.012800    1.567500    0.075600
C      0.010900    0.040800    0.003900
O      0.601700   -0.531500    1.170700
C     -1.400100   -0.539000   -0.100600
C     -1.427700   -2.059700   -0.180800
C     -1.215700   -2.883300    1.109200
O     -2.444200   -3.615200    0.894300
C     -2.802600   -2.764800   -0.210700
H      1.035800    1.953300    0.155300
H     -0.436300    2.005500   -0.821800
H     -0.548900    1.909600    0.950600
H      0.578600   -0.273400   -0.889200
H      1.498700   -0.192600    1.250900
H     -1.985700   -0.202900    0.765500
H     -1.880100   -0.115800   -0.992400
H     -0.779500   -2.403200   -0.993300
H     -0.342000   -3.542800    1.139100
H     -1.244800   -2.290400    2.030700
H     -3.652100   -2.109200    0.033400
H     -3.049400   -3.338200   -1.112700
