19
gdb_19909
C      0.728800    1.597900   -0.228300
C     -0.029900    0.270300   -0.166100
N      0.440500   -0.521100    0.972500
C     -0.253800   -1.265200    1.979400
C     -1.313600   -2.318700    1.496100
C     -1.510800   -2.392100    0.007200
C     -0.258200   -2.963200    0.612000
C      0.790500   -1.902900    1.104900
H      1.803100    1.422700   -0.338500
H      0.387100    2.201500   -1.076400
H      0.575200    2.172600    0.689900
H     -1.104100    0.468100   -0.071400
H      0.124600   -0.282300   -1.100400
H     -0.192000   -0.948500    3.016000
H     -1.982100   -2.809200    2.191900
H     -2.228400   -3.150000   -0.297000
H     -1.515200   -1.522400   -0.632200
H     -0.009000   -4.014000    0.539200
H      1.816200   -2.175000    1.334100
