18
gdb_18524
C      0.056700    1.494500   -0.018400
C     -0.120500   -0.002200   -0.208000
O      0.930100   -0.476600   -1.031800
C      0.895300   -1.851700   -1.252300
C     -0.156200   -2.468700   -2.263100
C      1.038500   -3.033400   -3.040100
O      1.807100   -1.909900   -3.472200
C      2.016400   -2.390100   -2.141900
H      1.019400    1.709300    0.454000
H      0.027400    2.007900   -0.983500
H     -0.740100    1.896100    0.614700
H     -0.101000   -0.522700    0.764800
H     -1.096500   -0.220000   -0.670800
H      0.860600   -2.406200   -0.300500
H     -0.805600   -3.216700   -1.803500
H     -0.747900   -1.745800   -2.828700
H      1.119100   -3.949300   -3.612900
H      3.028200   -2.663400   -1.866000
