19
gdb_4107
C     -0.287500    1.502000    0.067100
C      0.058200    0.016400   -0.006200
C      0.952500   -0.408900   -1.190600
C      1.520100   -1.774000   -0.759300
C      1.794700   -1.607500    0.750200
C      0.827000   -0.527500    1.186400
N      0.652800   -0.063400    2.357600
O      1.479200   -0.720100    3.292400
H      0.621800    2.109800    0.121400
H     -0.854400    1.813100   -0.816300
H     -0.884400    1.718900    0.956300
H     -0.878700   -0.558700   -0.076900
H      0.408000   -0.446500   -2.138100
H      1.767800    0.317000   -1.308400
H      0.766300   -2.553900   -0.918000
H      2.409600   -2.066100   -1.323100
H      1.667700   -2.523800    1.333700
H      2.818900   -1.264700    0.944000
H      1.252400   -0.269700    4.112600
