14
gdb_5594
C     -0.024300    1.390200    0.038100
O      0.003100   -0.030300    0.071400
C     -1.212200   -0.637200    0.047900
C     -1.389800   -1.996500    0.073300
O     -0.547200   -3.059300    0.123200
N     -2.749900   -2.185700    0.036100
C     -3.326200   -0.946400   -0.009800
N     -2.416000    0.005200   -0.003500
H      1.018600    1.711500    0.062900
H     -0.507300    1.757800   -0.873800
H     -0.562000    1.798300    0.900900
H      0.349900   -2.707800    0.142400
H     -3.210900   -3.080000    0.041700
H     -4.394400   -0.805500   -0.045600
