12
gdb_43
C     -0.036000    1.520900    0.015700
C      0.019400    0.010000    0.048100
C      1.308900   -0.712500   -0.249200
C      0.753500   -0.702700    1.155600
H      0.901100    1.953900    0.382800
H     -0.196400    1.894400   -1.002100
H     -0.846900    1.905900    0.644500
H     -0.884200   -0.480000   -0.305700
H      1.269000   -1.639000   -0.811500
H      2.190100   -0.111300   -0.449300
H      1.262500   -0.094900    1.896900
H      0.335400   -1.622500    1.549800
