16
gdb_10660
C      0.144600    1.148800    0.301700
O     -0.194400   -0.151600   -0.175700
C      0.544200   -0.595800   -1.261400
C      1.946800   -1.166600   -0.985600
C      0.801600   -2.104000   -1.194300
O      0.227800   -2.790500   -0.139700
C      0.278100    0.025900   -2.578200
O     -0.483100    0.942500   -2.767900
H      1.205300    1.203400    0.580400
H     -0.078100    1.906900   -0.453800
H     -0.469300    1.321900    1.187600
H      2.701700   -1.069700   -1.758800
H      2.300200   -1.037100    0.031300
H      0.760100   -2.663500   -2.124600
H     -0.201100   -2.125300    0.418600
H      0.858200   -0.435700   -3.411500
