15
gdb_19547
O     -0.257100    0.071000   -0.214100
C     -0.028300    1.238000    0.001400
C      1.305000    1.833100    0.035900
C      1.921300    2.832400    0.978400
C      3.224400    2.031500    1.025200
C      2.778200    1.434800   -0.336900
C      2.743500    2.682600   -1.233600
N      1.611700    3.243500   -0.411000
H     -0.837700    1.975400    0.202000
H      1.434100    3.393800    1.765200
H      4.172900    2.578100    1.053400
H      3.192500    1.293000    1.828900
H      3.129800    0.465300   -0.678000
H      3.636200    3.316800   -1.273000
H      2.368600    2.493000   -2.241200
