14
gdb_3278
O     -0.037200    0.048200    0.397000
C     -0.075200    1.205400    0.098400
C     -1.184700    2.267700   -0.095700
C     -0.023500    3.284300   -0.022100
C      0.532800    3.712900    1.366600
C      1.636000    2.624800    1.193400
N      0.973500    2.152700   -0.069200
H     -1.704000    2.227900   -1.056600
H     -1.922600    2.285100    0.709400
H      0.042300    4.025300   -0.820500
H      0.890100    4.742200    1.428700
H     -0.152000    3.528700    2.198600
H      2.634600    3.020400    0.994600
H      1.702500    1.848100    1.958900
