20
gdb_15189
C     -0.033000    1.465100    0.078300
C     -0.104700   -0.051000    0.147100
O      0.799000   -0.500800    1.135700
C      0.805700   -1.901900    1.289000
C      1.791500   -2.260400    2.396700
C      1.892500   -3.750700    2.602400
C      2.070700   -4.352300    3.928800
O      0.798500   -4.380400    3.280700
H      0.980300    1.789900   -0.175000
H     -0.720800    1.846000   -0.682500
H     -0.302300    1.905700    1.042500
H     -1.129200   -0.379900    0.390800
H      0.149300   -0.495200   -0.830800
H     -0.199200   -2.272700    1.548600
H      1.097300   -2.392400    0.342900
H      2.778700   -1.858200    2.138500
H      1.474200   -1.780200    3.328000
H      2.254000   -4.319500    1.742800
H      2.568700   -5.316000    4.026400
H      2.135200   -3.706800    4.804100
