16
gdb_17439
O     -0.109900    1.482800   -0.033100
C     -0.042500    0.076300   -0.064300
C     -1.359800   -0.671700   -0.116000
C     -1.759400   -0.799300   -1.589400
C     -0.694900   -0.074700   -2.416400
C      0.316900   -0.639300   -1.389400
O      1.665000   -0.784200   -1.662800
C     -0.759800   -1.754700   -0.990600
H      0.791000    1.821700   -0.006700
H      0.591100   -0.319500    0.742000
H     -2.079100   -0.791900    0.682700
H     -2.783300   -1.007500   -1.869400
H     -0.571400   -0.548700   -3.396600
H     -0.744900    1.013500   -2.515400
H      1.763200   -1.139800   -2.552400
H     -0.735300   -2.827800   -0.875600
