15
gdb_1987
C     -0.142300    1.411300   -0.048900
C      0.042100   -0.085300    0.022800
O      1.062300   -0.656300    0.308000
O     -1.114600   -0.716600   -0.297100
C     -1.083900   -2.132600   -0.259800
C     -1.786700   -2.815900    0.873800
C     -2.392200   -2.802400   -0.517700
H      0.791800    1.904300    0.217400
H     -0.444400    1.704000   -1.058500
H     -0.938800    1.724900    0.631800
H     -0.161500   -2.549400   -0.643600
H     -1.363200   -3.736400    1.259000
H     -2.250300   -2.179200    1.618500
H     -3.248800   -2.157500   -0.677400
H     -2.394900   -3.715500   -1.101900
