15
gdb_18658
O      0.066700   -0.016900    0.143200
C     -0.004200    1.186100    0.026900
C     -1.335400    1.919600   -0.099300
C     -1.306500    3.036900   -1.115300
C     -0.182900    3.658300   -1.470200
C      1.123800    3.310100   -0.853800
N      1.168600    3.350300    0.619000
C      1.222200    2.036200   -0.061500
H     -2.105800    1.177900   -0.324800
H     -1.574600    2.337600    0.890100
H     -2.258200    3.334000   -1.546000
H     -0.195500    4.458800   -2.203400
H      2.018200    3.615200   -1.390200
H      2.106200    3.588300    0.934100
H      2.154700    1.480500   -0.067600
