17
gdb_6067
C      0.049900    1.466700   -0.022700
C      0.093200   -0.044300    0.026500
O      0.192800   -0.661700    1.063900
C      0.004600   -0.767400   -1.310600
N      0.058100   -2.188800   -1.105700
C     -0.007700   -3.064700   -2.145500
C      0.059400   -4.535100   -1.764800
O     -0.113600   -2.688500   -3.300600
H      0.874000    1.851000   -0.633700
H     -0.879600    1.805400   -0.493500
H      0.120100    1.871700    0.987100
H     -0.920500   -0.467700   -1.823700
H      0.819200   -0.422000   -1.963300
H      0.143900   -2.485900   -0.145100
H     -0.845600   -5.032800   -2.123100
H      0.908200   -4.993100   -2.279500
H      0.158900   -4.705200   -0.689900
