17
gdb_19937
C     -0.103300    1.384700   -0.527900
C      1.127700    1.720500    0.351500
N      1.334200    0.271800    0.621200
C      1.394200   -0.192900    2.010600
C     -0.039300   -0.517700    2.400700
O     -0.934100    0.584700    2.206300
C     -0.880900   -0.433700    1.195600
C      0.006300   -0.060600    0.025800
H     -1.023900    1.914400   -0.282300
H      0.082200    1.453500   -1.600900
H      1.977000    2.191700   -0.155600
H      0.872900    2.302500    1.243900
H      2.013000   -1.096900    2.101600
H      1.836800    0.577400    2.652200
H     -0.266100   -1.170100    3.241300
H     -1.790400   -1.014800    1.062200
H      0.022300   -0.873800   -0.711000
