19
gdb_12776
C      0.012000    1.519700    0.065100
C     -0.053300    0.023000   -0.024800
C     -0.867200   -0.813000    0.885300
N      0.601100   -0.894700    1.004600
C      1.031200   -1.788900   -0.131400
C      0.488500   -0.803400   -1.197600
C     -0.466100   -1.289200   -2.272600
O      0.281600   -2.106200   -3.163500
H      0.993100    1.891700   -0.249500
H     -0.746000    1.985000   -0.576500
H     -0.163700    1.854000    1.091800
H     -1.333800   -0.312000    1.728600
H     -1.415100   -1.680100    0.521800
H      2.116000   -1.903700   -0.136500
H      0.568700   -2.781900   -0.105200
H      1.314600   -0.279400   -1.687900
H     -1.296100   -1.854200   -1.821200
H     -0.906700   -0.423400   -2.795000
H     -0.318700   -2.458000   -3.827300
