17
gdb_6750
C     -0.025300    1.559700   -0.002900
C     -0.000800    0.030300    0.002800
C      0.740100   -0.535800    1.232100
C      0.778200   -1.991400    1.262200
C      0.792100   -3.197400    1.257700
C      0.777700   -4.650800    1.190700
N      1.373300   -5.257400    2.260700
O      0.272600   -5.267400    0.272000
H      0.988800    1.974400   -0.019300
H     -0.554400    1.940300   -0.881300
H     -0.530100    1.953400    0.886500
H     -1.021900   -0.365700   -0.006900
H      0.484000   -0.344900   -0.904800
H      1.767600   -0.147800    1.253200
H      0.262900   -0.168200    2.150800
H      1.848800   -4.725500    2.968000
H      1.452800   -6.261000    2.254300
