13
gdb_3498
N     -0.088000   -1.214000   -0.105700
C     -0.057500   -0.058900   -0.056000
C     -0.015300    1.393600    0.010300
C      0.096500    2.127000    1.393500
C      1.556400    1.623200    1.515300
C      1.358300    2.150700    0.072100
N      0.663000    3.345700    0.692900
H     -0.744000    1.831600   -0.677700
H     -0.673700    2.198700    2.161200
H      2.202200    2.235500    2.142900
H      1.711200    0.552500    1.643900
H      2.088100    2.250400   -0.731100
H     -0.030200    3.722400    0.037700
