16
gdb_2234
C     -0.046600    1.554100    0.035300
C      0.089500    0.054700   -0.005900
N     -0.778600   -0.801000    0.859100
C      0.688000   -0.782700    1.072500
C      1.417700   -1.957700    0.430800
C      1.138600   -1.759100   -1.046900
C      0.431000   -0.653300   -1.283100
H      0.832600    2.041800   -0.399600
H     -0.924800    1.887500   -0.530200
H     -0.155500    1.912800    1.064200
H     -1.204300   -0.207200    1.570900
H      1.070700   -0.341400    1.987300
H      2.493600   -1.934000    0.649500
H      1.037300   -2.920200    0.793700
H      1.460300   -2.470600   -1.799300
H      0.104000   -0.303300   -2.255600
