20
gdb_8090
O     -0.071000    1.424400   -0.031500
C      0.020100    0.023300    0.044400
C      0.224000   -0.668700    1.430500
C     -0.697500   -1.793600    0.868000
C     -1.337300   -0.703500   -0.036300
C      0.096700   -2.779800   -0.006000
C      1.276500   -2.062700   -0.704300
C      0.980100   -0.572000   -0.999000
H      0.821700    1.785400   -0.062000
H      1.235800   -0.923300    1.759100
H     -0.280300   -0.093600    2.210700
H     -1.354400   -2.308500    1.571500
H     -2.106300   -0.133300    0.491000
H     -1.705200   -0.996400   -1.024800
H      0.483500   -3.608800    0.597500
H     -0.583400   -3.223700   -0.743600
H      2.148700   -2.114900   -0.044900
H      1.564700   -2.586300   -1.620900
H      0.538100   -0.434100   -1.992800
H      1.923700   -0.008400   -0.995200
