16
gdb_11210
O      0.132200   -0.132400   -0.024500
C      0.104100    1.067700    0.044900
C      1.310300    1.975100    0.055900
C      1.327600    2.931200   -1.172600
C      2.240200    4.087600   -0.744900
C      2.087500    4.177900    0.777900
O      2.499700    5.059800    1.482000
C      1.317500    2.938500    1.257200
H     -0.866300    1.620200    0.102700
H      2.206300    1.347300    0.056500
H      1.660300    2.421200   -2.078700
H      0.311600    3.301600   -1.359900
H      3.293500    3.859400   -0.953300
H      2.021700    5.048100   -1.216900
H      0.295100    3.264900    1.499300
H      1.748700    2.529200    2.172900
