14
gdb_11778
O     -0.051300   -0.046800    0.228200
C      0.013200    1.127800   -0.017100
C      1.268500    1.939600   -0.005100
C      1.618300    2.950300    1.149500
C      3.003000    2.621900    0.515200
O      2.515900    1.255300    0.297300
C      2.853700    3.236500   -0.890000
C      1.652700    2.784000   -1.250200
H     -0.891700    1.728200   -0.272600
H      1.234200    3.969600    1.087700
H      1.488600    2.507600    2.139500
H      3.946400    2.685400    1.054100
H      3.558400    3.867700   -1.410500
H      1.070500    2.923100   -2.148600
