11
gdb_1378
N      0.126200    1.440800    0.006300
C      0.052100    0.174300    0.001400
N     -1.137200   -0.552100    0.008500
C     -2.446600   -0.083100    0.024400
O     -2.792800    1.064400    0.035300
C      1.284300   -0.715400   -0.013200
O      2.396300   -0.263400   -0.021300
H      1.119900    1.691200   -0.001000
H     -1.043600   -1.557800    0.001700
H     -3.151800   -0.939100    0.026200
H      1.103000   -1.814800   -0.016500
