17
gdb_4145
O     -0.174800    1.302600    0.041500
N      0.001100   -0.099700    0.010800
C     -1.119500   -0.693000    0.004800
C     -2.546300   -0.156800    0.024500
C     -3.268000   -1.524000   -0.000200
C     -2.448300   -2.342000    1.041500
C     -1.310500   -2.184400   -0.025400
C     -2.460600   -2.297100   -1.084800
H      0.735000    1.617600    0.042900
H     -2.749600    0.434500    0.922800
H     -2.759900    0.471900   -0.845600
H     -4.357400   -1.512400    0.006400
H     -2.286000   -1.909600    2.032600
H     -2.786800   -3.376800    1.127000
H     -0.419500   -2.807800   -0.043700
H     -2.800300   -3.327600   -1.210000
H     -2.309600   -1.823300   -2.058700
