15
gdb_1554
O     -0.065100    1.452100   -0.030100
C      0.030000    0.036800    0.030600
C     -1.387200   -0.519500   -0.028300
C     -1.414200   -2.056700    0.026300
O     -0.770200   -2.563800    1.195500
C     -2.782800   -2.566900   -0.096700
C     -3.915700   -2.965000   -0.153500
H      0.819800    1.815300    0.067300
H      0.618200   -0.361100   -0.813600
H      0.517400   -0.300200    0.955400
H     -1.972000   -0.115100    0.806400
H     -1.873800   -0.182300   -0.949800
H     -0.814700   -2.449300   -0.805200
H     -1.360400   -2.403500    1.940700
H     -4.910900   -3.330500   -0.217700
