12
gdb_23620
F      0.071700    0.051800    0.042200
C     -0.054400    1.369000    0.008000
C     -1.207500    2.034100    0.119900
C     -1.190100    3.497900    0.063200
N     -2.274700    4.168200    0.166800
N      0.076100    4.123000   -0.110300
C      1.125600    3.400500   -0.207700
N      1.144500    2.024800   -0.158600
H     -2.144400    1.512200    0.250500
H     -2.049100    5.162800    0.103000
H      2.102200    3.861500   -0.340800
H      1.998300    1.497100   -0.240200
