15
gdb_4850
C      0.148600    1.305600   -0.226400
N     -0.342300    0.036900    0.306700
C      0.503200   -0.700400    1.128600
N      0.737000   -1.982000    1.034100
C      1.549700   -2.298700    2.121900
C      1.804700   -1.174100    2.845800
O      2.524500   -0.871700    3.956700
N      1.140100   -0.142100    2.212500
H      1.099800    1.220500   -0.773600
H     -0.607200    1.719300   -0.898100
H      0.286400    2.029900    0.583400
H     -0.687200   -0.579600   -0.418200
H      1.903600   -3.303200    2.292700
H      2.939900   -1.679100    4.274300
H      1.060600    0.797200    2.562100
