16
gdb_1528
C      0.067600    1.421100    0.070700
N     -0.088400   -0.018700    0.009900
C     -1.300300   -0.622500   -0.163300
O     -2.346500   -0.000200   -0.244900
C     -1.244500   -2.142500   -0.268400
C     -2.533700   -2.789600    0.221300
O     -2.415300   -4.187100   -0.004300
H      0.520400    1.733500    1.018200
H      0.687600    1.793500   -0.752800
H     -0.929000    1.856700   -0.009000
H      0.731900   -0.598300    0.068800
H     -1.098700   -2.411800   -1.322200
H     -0.389200   -2.550300    0.281800
H     -2.680000   -2.566000    1.289500
H     -3.379600   -2.351200   -0.322100
H     -3.246800   -4.599200    0.247000
