18
gdb_6572
C     -0.101500    1.564500    0.059500
C      0.048700    0.049200    0.010800
O     -1.216100   -0.573900   -0.161500
C      1.136100   -0.553400   -0.960000
C      1.765900   -1.265400    0.245300
O      2.217400   -2.572800    0.229000
C      2.196000   -0.271400    1.283000
C      0.735200   -0.662100    1.183200
H      0.853200    2.065600    0.240900
H     -0.492800    1.942500   -0.893700
H     -0.800900    1.848900    0.851500
H     -1.613000   -0.217500   -0.964000
H      0.663900   -1.258600   -1.646700
H      1.775200    0.143000   -1.515000
H      3.154300   -2.566400    0.003900
H      2.703900   -0.712300    2.135200
H      2.542800    0.725300    1.018200
H      0.198100   -1.109000    2.010400
