17
gdb_2925
O      0.006100    1.409100    0.227400
C     -0.013000    0.002300    0.063300
C     -1.421100   -0.483700   -0.041100
C     -2.532800    0.249600    0.015300
C     -3.777700   -0.581800   -0.180100
C     -3.254600   -2.035600   -0.044200
C     -1.726600   -1.946800   -0.288300
H      0.922000    1.686400    0.315900
H      0.543100   -0.304200   -0.841900
H      0.483800   -0.506800    0.909400
H     -2.547400    1.324400    0.144600
H     -4.565100   -0.352700    0.547500
H     -4.217300   -0.396300   -1.171100
H     -3.437500   -2.392600    0.974200
H     -3.751200   -2.733200   -0.723500
H     -1.458400   -2.226400   -1.318100
H     -1.158300   -2.620000    0.365700
