21
gdb_15190
C      0.259600    1.174300   -0.073100
C      0.038800   -0.184300    0.591600
O     -1.323200   -0.549500    0.713000
C     -1.937900   -0.952800   -0.491800
C     -3.325000   -1.483600   -0.147900
N     -4.027100   -1.874900   -1.363000
C     -3.867400   -3.265000   -1.782500
C     -5.148300   -2.789800   -1.191600
H      1.323100    1.434400   -0.048900
H     -0.058500    1.174800   -1.119700
H     -0.298400    1.952800    0.456000
H      0.592500   -0.967100    0.046500
H      0.426100   -0.162500    1.615800
H     -2.036600   -0.122100   -1.205500
H     -1.342000   -1.739900   -0.985100
H     -3.225900   -2.313000    0.574500
H     -3.897000   -0.689200    0.344400
H     -3.778800   -3.431700   -2.852100
H     -3.248400   -3.915500   -1.165700
H     -5.382800   -3.125300   -0.182500
H     -6.013100   -2.601900   -1.821700
