15
gdb_12581
C      0.008200    1.554100    0.030400
C     -0.034700    0.059400    0.023700
C     -1.091200   -0.778500    0.030700
N     -2.428600   -0.503500    0.102800
C     -0.590400   -2.200100    0.025800
O      0.822300   -2.098000    0.000700
C      1.182900   -0.757200    0.001800
O      2.335100   -0.419700   -0.022500
H      1.019200    1.885200   -0.219800
H     -0.684800    1.990600   -0.699900
H     -0.244200    1.972400    1.012500
H     -2.714100    0.441900   -0.101900
H     -3.070100   -1.203800   -0.235700
H     -0.908200   -2.749200    0.921700
H     -0.934500   -2.758800   -0.855700
