17
gdb_5127
C      0.033500    1.438100    0.008000
N      0.006900   -0.006800    0.035900
C     -0.038400   -0.834600   -1.040600
N     -0.045700   -2.104700   -0.694700
C     -0.013200   -2.100800    0.676800
N     -0.063300   -3.302000    1.406900
C      0.010000   -0.815000    1.169800
C      0.016500   -0.292600    2.564700
H      0.936100    1.827500    0.490700
H      0.024900    1.771100   -1.031700
H     -0.840100    1.862100    0.514600
H     -0.061300   -0.453200   -2.051100
H     -0.036700   -4.082700    0.761600
H      0.705500   -3.396000    2.060000
H      0.977300    0.150200    2.861900
H     -0.754500    0.470800    2.728700
H     -0.193900   -1.115700    3.253000
