14
gdb_5777
C      0.870500    0.959900   -0.110600
O     -0.028400    0.090600   -0.803500
C     -0.462100    0.653100    0.442700
C     -0.648200   -0.320900    1.534800
N     -1.237500   -0.103900    2.690500
C     -1.149300   -1.297300    3.370200
C     -0.507100   -2.240900    2.611400
N     -0.184500   -1.599400    1.437200
H      1.747400    0.480900    0.321100
H      1.044700    1.924100   -0.585300
H     -1.236000    1.414600    0.374300
H     -1.555900   -1.409000    4.363700
H     -0.263900   -3.276000    2.783300
H      0.226900   -1.993100    0.606700
