16
gdb_4463
C     -0.125100    1.494600    0.069600
C     -0.029700    0.012300   -0.050600
C      0.175200   -0.811800   -1.133200
N      0.412000   -0.430100   -2.472900
C      0.201100   -2.170600   -0.670700
C      0.016000   -2.117300    0.688800
O     -0.060500   -3.071300    1.653500
N     -0.110700   -0.820200    1.071800
H     -0.305100    1.946500   -0.911200
H     -0.959500    1.800600    0.714500
H      0.784500    1.961800    0.473600
H      0.188900    0.544800   -2.634000
H     -0.131900   -0.987500   -3.122100
H      0.356600   -3.055500   -1.268600
H      0.074400   -3.927800    1.237600
H     -0.277200   -0.523700    2.016900
