11
gdb_104
O     -0.217000    1.382300   -0.010700
C     -0.042600   -0.010600    0.003600
C     -0.445400   -0.788100    1.239400
C     -1.338800   -0.770100    0.014500
O     -2.519100   -0.035100    0.034900
H      0.311300    1.766700    0.695900
H      0.791500   -0.368000   -0.597000
H      0.107600   -1.688300    1.485900
H     -0.797300   -0.211600    2.089200
H     -1.422400   -1.675600   -0.578700
H     -2.251700    0.893800   -0.011400
