17
gdb_14618
O      0.297100    0.665000   -1.471800
C      0.153100    1.423700   -0.537000
N      1.087500    1.682100    0.418200
C      2.417400    1.096300    0.405200
C      3.513000    2.114900    0.071200
C      4.912500    1.468400    0.069500
C      5.975500    2.422400   -0.219400
C      6.833400    3.229600   -0.458100
H     -0.781300    1.992000   -0.358100
H      0.860400    2.357800    1.130500
H      2.620000    0.630100    1.378300
H      2.390000    0.302200   -0.345100
H      3.311200    2.556800   -0.909600
H      3.498000    2.935400    0.798500
H      5.100600    0.997000    1.043600
H      4.937600    0.656500   -0.669100
H      7.600000    3.932500   -0.671000
