18
gdb_14277
C     -0.072600    1.578800    0.074600
C      1.466800    1.494500   -0.028700
C      2.213000    1.570500    1.306900
C      1.926900    0.360000    2.211300
O      0.541300    0.090300    2.388500
C     -0.054700   -0.655800    1.342100
C      0.004900    0.043100   -0.012800
O      1.373500    0.119600   -0.496300
H     -0.492000    2.003100    0.986800
H     -0.530800    2.032500   -0.805400
H      1.935700    2.136500   -0.781300
H      3.295500    1.609400    1.132400
H      1.935400    2.503200    1.813400
H      2.428500   -0.525900    1.799200
H      2.329900    0.546100    3.212000
H      0.424000   -1.644300    1.247600
H     -1.099300   -0.805700    1.638400
H     -0.645200   -0.466200   -0.733700
