20
gdb_16765
C      0.239300    1.321200   -0.345000
C     -0.105600   -0.167100   -0.236300
C     -1.553200   -0.442700    0.211300
C     -2.613200   -0.080100   -0.874100
C     -2.971300   -1.395200   -1.534100
O     -1.829200   -2.167200   -1.938600
C     -2.486800   -2.505000   -0.707100
C     -1.799700   -1.950500    0.522400
H      1.283600    1.460600   -0.641900
H     -0.380700    1.835500   -1.087000
H      0.095500    1.832200    0.614200
H      0.072000   -0.671300   -1.191600
H      0.573000   -0.631900    0.490800
H     -1.737800    0.149600    1.114400
H     -3.518200    0.345100   -0.423300
H     -2.239000    0.654200   -1.594100
H     -3.838200   -1.475800   -2.186000
H     -2.962400   -3.482900   -0.689600
H     -0.869200   -2.478900    0.755000
H     -2.468200   -2.076200    1.383100
