19
gdb_1360
C     -0.215800    0.979400   -1.845400
C     -0.034800   -0.188600   -0.899400
C      1.321200   -0.612800   -0.338100
C      2.619300    0.091300   -0.668700
C      0.272600   -0.044900    0.579100
C      0.416100    1.301500    1.253100
O     -0.291800   -1.022300    1.426800
H      0.458700    1.810700   -1.625700
H     -0.028200    0.674700   -2.881300
H     -1.239000    1.369600   -1.798900
H     -0.694700   -1.026900   -1.110100
H      1.426600   -1.688600   -0.226600
H      2.501200    1.172400   -0.776800
H      3.365500   -0.079000    0.115200
H      3.036800   -0.285900   -1.608900
H      0.901400    2.044300    0.616900
H     -0.568200    1.701000    1.529100
H      1.003800    1.200400    2.171300
H     -1.206700   -0.769300    1.595800
