13
gdb_16517
O      0.076600    1.352500    0.056800
C     -0.001400   -0.015100   -0.077200
C      0.847300   -0.770900   -1.137500
N      0.473900   -2.195200   -0.879000
C     -0.581900   -2.056100   -0.192600
O     -0.627500   -2.341400    1.177500
C     -0.670800   -0.841600    1.210500
C     -1.321800   -0.681100   -0.087400
H      0.965600    1.582200    0.351100
H      0.635300   -0.384600   -2.145700
H      1.928100   -0.708700   -0.967300
H     -0.834400   -0.397300    2.185000
H     -2.312400   -0.388100   -0.411000
