20
gdb_17131
C     -0.296600    1.418300   -0.072500
C      0.043200   -0.049200    0.170800
C      1.112700   -0.629400   -0.801600
C      2.186000   -0.462600    0.316700
C      1.035600   -0.291700    1.346900
C      3.169100   -1.585600    0.504100
C      3.576600   -2.083100    1.823700
O      2.656500   -2.821500    1.015200
H      0.608500    2.033700   -0.138500
H     -0.852000    1.545900   -1.008300
H     -0.911100    1.821400    0.740200
H     -0.880500   -0.632100    0.229700
H      0.936500   -1.684400   -1.028500
H      1.276400   -0.088600   -1.738000
H      2.748400    0.468100    0.182800
H      1.136500    0.510600    2.083300
H      0.833200   -1.232700    1.864600
H      3.875200   -1.719400   -0.318900
H      4.555800   -2.541400    1.955300
H      3.149700   -1.634700    2.719700
