16
gdb_9463
C     -0.125900    1.760400    0.363800
C      0.027800    0.273600    0.051400
C      0.734800   -0.189000   -1.256600
C      1.674300   -1.135000   -0.448400
C      1.191200   -0.443500    0.824500
O      1.589800   -0.342600    1.945200
C     -1.259200   -0.484100    0.316900
O     -1.674500   -1.394800   -0.353900
H      0.833500    2.276600    0.270700
H     -0.838400    2.237500   -0.316900
H     -0.480600    1.903200    1.389400
H      0.074100   -0.683600   -1.967600
H      1.271400    0.627200   -1.743400
H      1.345500   -2.179000   -0.479400
H      2.750200   -1.097200   -0.632700
H     -1.800900   -0.144400    1.227100
