19
gdb_15680
C      0.039700    1.570700    0.152800
C     -0.009800    0.043600    0.042700
C      0.579200   -0.503800   -1.263900
C      0.765700   -2.032300   -1.303200
C      0.637800   -2.398500   -2.796500
N     -0.231800   -1.345800   -3.290500
C     -0.280500   -0.222500   -2.509600
O     -0.888900    0.793500   -2.778000
H      1.074800    1.931000    0.130100
H     -0.497500    2.030300   -0.678600
H     -0.407900    1.907800    1.093000
H      0.537900   -0.406600    0.880800
H     -1.047400   -0.302600    0.133600
H      1.545900   -0.012100   -1.449500
H      1.713100   -2.364800   -0.873600
H     -0.043300   -2.511200   -0.740400
H      1.616100   -2.387800   -3.299300
H      0.195900   -3.388000   -2.950200
H     -0.619400   -1.330500   -4.220500
