15
gdb_2753
C     -0.297500    1.520900   -0.072400
C      0.006200    0.032600   -0.062800
C      1.320500   -0.439000   -0.720700
O      1.778500   -1.054400    0.501700
C      0.608900   -0.609400    1.232400
C      0.924400    0.270800    2.346500
C      1.173300    0.995700    3.272900
H      0.555200    2.101800    0.290300
H     -0.533000    1.855000   -1.088600
H     -1.155600    1.755200    0.565300
H     -0.861300   -0.535500   -0.407400
H      1.224700   -1.168200   -1.533600
H      1.988700    0.370400   -1.043200
H      0.037500   -1.470200    1.603400
H      1.399000    1.630500    4.094100
