20
gdb_9662
C      0.277300    1.539500   -0.043000
C     -0.155100    0.077000   -0.211900
C      0.650800   -0.628700   -1.282300
C      1.944400   -1.309600   -0.987700
C      0.735000   -2.158900   -1.379100
C      0.070700   -3.068100   -0.364300
C      0.762700   -2.678200   -2.774400
O      1.278300   -2.116600   -3.713100
H      1.331600    1.607100    0.244300
H      0.152200    2.098100   -0.976700
H     -0.317100    2.039200    0.728000
H     -0.051600   -0.442700    0.747000
H     -1.221400    0.039800   -0.469300
H      0.606700   -0.158700   -2.262200
H      2.742000   -1.241800   -1.719000
H      2.262300   -1.383600    0.048000
H      0.148700   -2.671200    0.649700
H     -0.993800   -3.208300   -0.584000
H      0.542000   -4.057600   -0.362200
H      0.254300   -3.660400   -2.912000
