18
gdb_6525
C     -0.120700    1.562300    0.095100
C     -0.006400    0.057400   -0.005100
O     -1.201300   -0.556900   -0.425800
C      1.274900   -0.602600   -0.405900
C      0.763000   -0.742700    1.040400
C      1.497200   -0.064300    2.178600
C      0.224000   -2.093400    1.378000
O      0.339100   -2.600300    2.468500
H      0.812700    2.030500    0.413100
H     -0.380600    1.978200   -0.886100
H     -0.911300    1.840400    0.798400
H     -1.347800   -0.313700   -1.346900
H      1.206600   -1.479900   -1.041400
H      2.164500    0.001600   -0.549400
H      2.023400    0.834100    1.849600
H      0.807800    0.213700    2.981400
H      2.229500   -0.753400    2.607400
H     -0.284100   -2.620300    0.547000
