14
gdb_1256
C     -0.589500    1.730800    0.156200
N     -0.887500    0.373400    0.565300
C     -0.253200   -0.558700   -0.009100
N     -0.486300   -1.883300    0.323500
C      0.224500   -2.936400   -0.239400
N     -0.146900   -4.174300    0.248300
O      1.112000   -2.777500   -1.052100
H      0.176000    1.800600   -0.632600
H     -1.503500    2.216000   -0.206100
H     -0.246600    2.309800    1.021700
H      0.505800   -0.445800   -0.788600
H     -1.147400   -2.039900    1.069800
H     -1.085800   -4.309800    0.589500
H      0.227600   -4.942300   -0.286600
