15
gdb_20947
C     -0.039600    1.535700    0.050600
C     -0.033600    0.028700   -0.180600
N     -1.339400   -0.539300    0.141000
C     -1.547700   -1.892000    0.060300
N     -2.732400   -2.424000   -0.137400
O     -2.533800   -3.788800   -0.081500
N     -1.229500   -4.092900    0.132400
C     -0.602400   -2.954500    0.222700
H      0.943700    1.958500   -0.170800
H     -0.768100    2.031200   -0.601000
H     -0.295100    1.769000    1.088000
H      0.264700   -0.192300   -1.217800
H      0.712700   -0.437900    0.472400
H     -2.128200    0.000500   -0.188600
H      0.461200   -2.918800    0.394500
