16
gdb_1128
C      0.007900    1.598800   -0.030100
C      0.069900    0.077500    0.026200
O     -1.226100   -0.394300    0.327700
C      0.573800   -0.521500   -1.302700
C      0.677500   -2.040500   -1.241000
N      1.638000   -2.600500   -2.022000
O     -0.058700   -2.726100   -0.543100
H      0.998000    2.031000   -0.206300
H     -0.665900    1.923500   -0.829800
H     -0.378700    1.986500    0.916000
H      0.781300   -0.217800    0.817900
H     -1.168400   -1.361600    0.261900
H     -0.147600   -0.268300   -2.090600
H      1.537100   -0.081800   -1.585700
H      2.244800   -2.052000   -2.604700
H      1.711600   -3.604700   -2.047700
