14
gdb_5742
O      0.005000    1.417400   -0.118100
C      0.086200    0.073300    0.021600
C      1.112300   -0.851100   -0.054500
N      0.656900   -2.150400    0.184100
C     -0.623300   -1.976000    0.354000
C     -1.975100   -2.468900    0.843600
C     -2.381900   -0.942000    0.795100
N     -1.032400   -0.681300    0.246700
H      0.883600    1.754000   -0.321200
H      2.148800   -0.655000   -0.286100
H     -2.535400   -3.113800    0.162400
H     -1.988400   -2.905100    1.845100
H     -3.191600   -0.673500    0.113200
H     -2.547600   -0.485000    1.773400
