14
gdb_20343
C     -0.071100    1.416000    0.010400
C      1.380100    1.854900   -0.001000
C      2.197600    0.786300   -0.014700
C      1.386400   -0.422100   -0.013600
C      1.364400   -1.806600   -0.020700
C     -0.015500   -2.120100   -0.009100
N     -0.796600   -1.032700    0.004100
N      0.084100   -0.025200    0.001000
H     -0.609700    1.755100    0.903500
H     -0.626600    1.764900   -0.868400
H      1.671000    2.895800    0.001800
H      3.278100    0.802800   -0.025000
H      2.199200   -2.487300   -0.032400
H     -0.473000   -3.098900   -0.009900
