16
gdb_16749
O     -0.043700   -0.022100   -0.013500
C      0.021300    1.190200   -0.010600
N      1.174300    1.907200    0.008200
C      2.477100    1.266500   -0.184100
C      3.279000    2.324900   -0.916400
N      2.590700    2.825400   -2.123300
C      2.525700    3.601800   -0.871000
C      1.237600    3.364100   -0.104700
H     -0.873700    1.843900   -0.014800
H      2.954500    1.021500    0.774400
H      2.337400    0.339700   -0.745100
H      4.362200    2.289800   -0.888000
H      3.272300    3.251200   -2.746600
H      3.014800    4.567000   -0.802200
H      0.352100    3.745700   -0.622300
H      1.299800    3.849800    0.879800
