15
gdb_5736
N      0.007000    1.436500   -0.083200
C     -0.026300    0.036900   -0.028400
C     -1.077700   -0.848500   -0.110800
C     -2.490800   -1.393000   -0.270300
C     -1.805600   -2.812500   -0.239100
N     -0.518100   -2.101500   -0.072700
C      0.824400   -1.978100    0.013000
N      1.141200   -0.688400    0.056100
H      0.915600    1.769200    0.215600
H     -0.715100    1.872100    0.476200
H     -3.182500   -1.210100    0.557000
H     -2.995800   -1.159000   -1.211400
H     -2.066600   -3.449200    0.609600
H     -1.869500   -3.384300   -1.167800
H      1.521200   -2.799800    0.054200
