15
gdb_17091
N     -0.020500   -1.135000   -0.101200
C      0.000500    0.018700   -0.033200
C      0.024700    1.473000    0.034700
C     -0.428600    2.063300    1.420900
C      0.882600    2.807300    1.747800
C      1.241300    3.535700    0.433400
C      1.472700    2.060200    0.047800
O      1.892100    1.802300    1.412900
H     -0.562300    1.869800   -0.798300
H     -1.296200    2.720600    1.333000
H     -0.641800    1.281900    2.150400
H      1.000000    3.248000    2.736600
H      0.477900    4.119800   -0.087000
H      2.182300    4.079400    0.511500
H      2.168800    1.720800   -0.717300
