13
gdb_20614
C      0.022100    1.514100    0.116900
C      0.060200    0.028700   -0.002600
C      0.004000   -0.760800   -1.142600
N      0.078900   -2.032300   -0.650900
N      0.173900   -2.039200    0.683000
N      0.162800   -0.796000    1.076400
C     -0.102900   -0.452400   -2.510100
C     -0.194400   -0.185700   -3.681100
H      0.929100    1.889200    0.601300
H     -0.062500    1.978500   -0.868000
H     -0.828800    1.834000    0.726400
H      0.069800   -2.901100   -1.162200
H     -0.275300    0.054600   -4.712500
