15
gdb_7937
C     -0.062400    1.397600   -0.067100
N     -0.016500   -0.042600   -0.048700
C     -1.185600   -0.897400   -0.033400
C     -0.592200   -2.301800   -0.016800
N     -1.291300   -3.360000    0.000200
N      0.777600   -2.109700   -0.024700
C      1.154300   -0.755400   -0.043500
O      2.288400   -0.335300   -0.052800
H      0.966500    1.760800   -0.074900
H     -0.580500    1.769300   -0.960100
H     -0.575200    1.792100    0.819100
H     -1.811900   -0.734300    0.852800
H     -1.817900   -0.757800   -0.919400
H     -0.710300   -4.199400    0.009200
H      1.472000   -2.838000   -0.016800
