13
gdb_1773
N      0.116900    1.419700    0.036300
C      0.035400   -0.007000    0.084600
C     -0.533900   -0.697800    1.282300
C     -1.318700   -0.731000   -0.027500
O     -2.411500    0.129200   -0.155700
C     -1.408700   -1.967500   -0.762200
N     -1.476000   -2.962900   -1.349800
H      0.202300    1.728400   -0.928100
H     -0.743400    1.827100    0.390400
H      0.864800   -0.502200   -0.409000
H     -0.071300   -1.613000    1.632800
H     -0.973300   -0.076300    2.056500
H     -3.158300   -0.251100    0.320900
