12
gdb_451
O      0.025900    0.006700    0.036500
C     -0.020000    1.206800    0.045800
C     -1.262700    2.097900    0.125600
C     -0.659000    3.461900    0.469500
O      0.638200    3.463500   -0.134100
C      1.177000    2.164400   -0.002000
H     -1.736800    2.110900   -0.862900
H     -1.985000    1.709400    0.845700
H     -1.209000    4.313000    0.063600
H     -0.576600    3.588800    1.560700
H      1.760300    2.045500    0.927400
H      1.835700    1.949500   -0.848200
