13
gdb_3998
O     -0.101700    1.463100    0.010900
N      0.071100    0.089000    0.001800
C     -1.043100   -0.548000    0.009000
C     -1.010900   -2.068700    0.000600
C      0.315600   -2.668100   -0.015300
C      1.387900   -3.207500   -0.028400
C     -2.329800    0.062300    0.024600
C     -3.445100    0.515200    0.037800
H      0.807200    1.784500    0.003900
H     -1.570900   -2.423300    0.876500
H     -1.587500   -2.413900   -0.868400
H      2.343200   -3.670800   -0.039900
H     -4.419200    0.938900    0.049400
