13
gdb_20527
C     -0.021800    1.496600   -0.057200
C     -0.025600   -0.001600    0.071500
O     -0.047700   -0.621700    1.101600
N     -0.002100   -0.716600   -1.164200
C     -0.000800   -2.071000   -1.334200
C      0.026000   -2.235600   -2.688400
N      0.039700   -0.998100   -3.285800
N      0.022700   -0.085000   -2.374600
H      0.865800    1.831100   -0.600400
H     -0.887000    1.832500   -0.634600
H     -0.041100    1.924300    0.944500
H     -0.018400   -2.743300   -0.495100
H      0.036300   -3.141600   -3.271500
