17
gdb_18627
C     -0.095300    1.459500    0.039000
N      0.049600    0.014100   -0.069900
C      0.554700   -0.659600   -1.240200
C      1.338200    0.135000   -2.287500
C      2.558000    0.735100   -1.554300
C      2.601300    0.077200   -0.167000
O      3.533500    0.119300    0.597400
C      1.327900   -0.692700    0.054100
H      0.589200    2.065100   -0.569500
H     -1.117900    1.717300   -0.254500
H      0.036000    1.744400    1.086600
H     -0.026800   -1.516400   -1.572000
H      1.659600   -0.548100   -3.079100
H      0.712300    0.896900   -2.763500
H      3.502200    0.522500   -2.063100
H      2.511200    1.823600   -1.438800
H      1.350900   -1.522400    0.754300
