20
gdb_9757
C      0.009400    1.510900   -0.222600
C     -0.087800   -0.003000   -0.012900
C     -1.526200   -0.531200    0.190800
C     -2.196700    0.064900    1.437100
O     -2.321100   -0.181500   -0.963800
C     -2.767600   -1.345800   -1.649000
C     -2.252200   -2.500600   -0.837200
C     -1.558300   -2.042800    0.196400
H      1.034000    1.798400   -0.477900
H     -0.647400    1.823700   -1.038700
H     -0.273400    2.069800    0.674600
H      0.328900   -0.518800   -0.885600
H      0.520900   -0.306500    0.849000
H     -2.303800    1.147900    1.338300
H     -3.192900   -0.365600    1.568700
H     -1.606900   -0.142900    2.336400
H     -3.866800   -1.338800   -1.721400
H     -2.379800   -1.354200   -2.680700
H     -2.439400   -3.536300   -1.092000
H     -1.061700   -2.630000    0.959000
