16
gdb_19574
O      0.005600   -0.010900    0.157900
C     -0.013500    1.173400    0.000300
C     -1.084200    2.277600    0.015900
C     -0.026900    2.990100    0.948100
C      1.025000    2.308000   -0.012400
C      0.703500    3.017400   -1.341500
C     -0.061400    2.260200   -2.402800
C     -0.819000    2.995500   -1.321000
H     -2.111400    2.088400    0.319900
H     -0.042900    4.081600    0.930600
H     -0.007700    2.609700    1.972400
H      2.065000    2.148500    0.263900
H      1.268200    3.902600   -1.608600
H     -0.081200    2.710100   -3.390300
H     -0.046000    1.174500   -2.415300
H     -1.416000    3.864000   -1.572600
