15
gdb_19501
N     -0.172700   -1.175600   -0.133200
C     -0.062200   -0.027700   -0.042000
C      0.016200    1.406600    0.031500
C      0.495800    2.141800    1.275100
C      1.285200    1.335600    2.290600
O      2.260300    0.620500    1.541700
C      2.585300    1.362900    0.372900
C      1.339200    2.159400    0.031100
H     -0.787400    1.899800   -0.506300
H     -0.075300    3.000300    1.606400
H      1.752800    2.023000    3.013600
H      0.693100    0.598500    2.841100
H      3.421000    2.057900    0.553000
H      2.887100    0.644500   -0.395100
H      1.424100    3.031700   -0.605200
