14
gdb_8379
O      0.051700    1.443700    0.208500
C      0.054200    0.056200    0.074700
C     -0.532700   -0.825700    1.177600
C     -1.274100   -0.577100   -0.093100
C     -2.623000    0.060700   -0.367400
C     -2.752000   -1.087400   -1.374200
O     -3.537600   -1.494200   -2.164700
O     -1.513100   -1.617600   -1.071000
H      0.751100    1.689700    0.823500
H      0.876900   -0.370700   -0.498800
H     -0.085200   -1.802300    1.327500
H     -0.906300   -0.337700    2.072300
H     -3.354100    0.029800    0.442100
H     -2.596900    1.056900   -0.811300
