12
gdb_14571
N      0.010100   -1.175700   -0.004300
C     -0.018900   -0.021000    0.002100
C     -0.026700    1.439300    0.009900
C      1.415200    2.014700   -0.000500
C      1.417000    3.466900    0.007200
C      1.395500    4.674200    0.013900
C      1.377800    6.039800    0.021400
N      1.361000    7.201000    0.027900
H     -0.578600    1.800500   -0.863300
H     -0.562200    1.791100    0.897000
H      1.964200    1.640200    0.871000
H      1.947800    1.649600   -0.886000
