15
gdb_1233
C     -0.036300    1.553100    0.007400
C      0.041800    0.012200   -0.000900
C      0.715800   -0.512100   -1.286000
C      0.725300   -0.484300    1.189300
C      1.298100   -0.892900    2.174800
C      1.946400   -1.349600    3.280800
C      2.520700   -1.755400    4.262800
H      0.966400    1.989500   -0.024200
H     -0.592800    1.904200   -0.867100
H     -0.537900    1.917700    0.907400
H     -0.986300   -0.376700    0.022100
H      1.743100   -0.143000   -1.359900
H      0.744900   -1.604500   -1.298700
H      0.162200   -0.168800   -2.165500
H      3.027000   -2.111200    5.125200
