18
gdb_17485
C      0.002000    1.493900    0.069500
C     -0.051600   -0.003900   -0.085300
C      0.769800   -0.647600   -1.204200
C      0.374600   -2.148600   -1.128600
C     -0.913600   -2.153000   -0.303000
C     -0.836700   -1.498200    1.061900
O      0.336000   -0.693500    1.167200
C     -1.417900   -0.738900   -0.085000
H      1.028700    1.820100    0.264400
H     -0.348000    1.987900   -0.843400
H     -0.624000    1.818300    0.905000
H      0.489600   -0.209600   -2.169700
H      1.840800   -0.482400   -1.054400
H      0.206300   -2.574400   -2.121800
H      1.157200   -2.741300   -0.646000
H     -1.637400   -2.952700   -0.418000
H     -1.264900   -1.897200    1.974500
H     -2.400900   -0.336800   -0.288800
