19
gdb_3317
C      0.021200    1.546100    0.078200
C     -0.140000    0.027800   -0.051000
C      0.676800   -0.561600   -1.197800
C      2.246200   -0.590500   -1.102900
C      2.217100   -2.100800   -1.368300
C      1.421100   -2.792800   -0.300000
C      0.687300   -2.085000   -1.407400
H      1.066300    1.820000    0.259600
H     -0.298700    2.057400   -0.836900
H     -0.574500    1.942800    0.906300
H      0.146000   -0.452000    0.893300
H     -1.199000   -0.217800   -0.207500
H      0.387500   -0.064600   -2.130800
H      2.727000   -0.010500   -1.893500
H      2.681100   -0.292200   -0.141800
H      2.906900   -2.638800   -2.007200
H      1.401000   -3.876500   -0.360800
H      1.414900   -2.409000    0.717600
H      0.018000   -2.623500   -2.068600
