15
gdb_10480
C     -0.029400    1.489800    0.035000
C     -0.004000    0.035400    0.029500
C      0.029500   -1.168500    0.023800
C      0.066100   -2.602200   -0.014800
C     -0.471800   -3.378700    1.164100
N     -1.210900   -3.379800   -0.084900
C      1.164400   -3.267700   -0.795800
O      2.118600   -2.708300   -1.263200
H      0.982900    1.895500   -0.066700
H     -0.629600    1.881700   -0.793300
H     -0.451700    1.878100    0.968200
H     -0.010800   -4.327000    1.428900
H     -0.821100   -2.782000    2.001100
H     -1.982200   -2.718200   -0.043100
H      1.001400   -4.363600   -0.896100
