16
gdb_20174
C     -0.016600    1.534800    0.073500
C      1.343700    2.179200   -0.039000
C      2.422200    1.516900   -0.461800
C      2.362300    0.101600   -0.896700
C      1.831600   -1.023700   -0.005600
O      0.941500   -0.531800    0.983500
C      0.078200    0.022900   -0.064000
C      1.010300   -0.530800   -1.156200
H     -0.458100    1.763000    1.052500
H     -0.715500    1.941200   -0.673600
H      1.423800    3.222400    0.253300
H      3.388300    2.011800   -0.501300
H      3.145900   -0.236500   -1.568900
H      2.356500   -1.952100    0.187700
H     -0.901500   -0.463800   -0.033100
H      0.710500   -0.992200   -2.087000
