13
gdb_21293
C     -0.016000    1.452500   -0.048100
O      0.025600    0.029800    0.026000
C      0.605000   -0.583500   -1.013600
N      1.126200    0.021000   -2.074000
N      1.572200   -0.995000   -2.815300
N      1.379200   -2.218200   -2.314100
C      0.764700   -1.981700   -1.166600
O      0.367500   -2.935900   -0.305000
H      0.994600    1.871500   -0.102100
H     -0.578900    1.782500   -0.927800
H     -0.513200    1.785200    0.863500
H      2.026700   -0.848500   -3.698400
H      0.614600   -3.788800   -0.683200
