15
gdb_16124
N     -0.007400   -1.140300    0.357000
C      0.017800    0.005600    0.206000
C      0.035200    1.425200   -0.028000
C     -0.830400    1.991800   -1.153900
N     -0.324600    3.362000   -1.270100
C      1.127600    3.315300   -1.065500
C      1.269700    2.274000    0.032700
N      0.302600    2.301100    1.126900
H     -0.680800    1.366700   -2.050200
H     -1.899400    1.993800   -0.915300
H     -0.595300    3.813400   -2.133900
H      1.703700    2.976600   -1.943700
H      1.503100    4.303400   -0.775600
H      2.245600    1.864700    0.267800
H     -0.288600    3.128200    1.046700
