11
gdb_21759
O     -0.017500    1.298500    0.009300
N      1.311100    1.788400   -0.000800
C      2.084900    0.745400   -0.013900
N      1.369900   -0.421100   -0.013400
C      1.366900   -1.813800   -0.020800
C      0.032600   -2.136700   -0.009700
N     -0.801400   -1.022200    0.004300
C      0.050500   -0.043400    0.001400
H      3.160400    0.821400   -0.023800
H      2.266800   -2.401800   -0.032700
H     -0.389400   -3.130400   -0.011000
