19
gdb_7990
C     -0.684400    1.348300    0.025800
C      0.171600    0.085000   -0.003300
C      1.196900    0.049500   -1.161000
N      2.267800   -0.782900   -0.647400
C      3.359800   -1.245500   -1.469300
C      2.268700   -0.907400    0.719600
O      3.104800   -1.495400    1.374600
C      1.047400   -0.148100    1.239700
H     -0.062800    2.241100    0.158000
H     -1.249700    1.468300   -0.905000
H     -1.404200    1.317600    0.849700
H     -0.484400   -0.785700   -0.122400
H      0.774300   -0.375000   -2.079600
H      1.561300    1.060900   -1.406800
H      3.907200   -0.406800   -1.920400
H      4.038200   -1.810400   -0.827500
H      2.998800   -1.892800   -2.277600
H      1.399000    0.799300    1.668900
H      0.557300   -0.705000    2.040400
