15
gdb_9200
O      0.054400    1.408100    0.009000
C     -0.008900    0.009000    0.002200
C     -1.467300   -0.436500    0.013700
O     -2.386500    0.342300    0.026500
C     -1.684200   -1.947500    0.007900
C     -3.180200   -2.298200    0.020300
C     -3.403700   -3.740900    0.014700
N     -3.562300   -4.885500    0.010100
H      0.980600    1.667000    0.001400
H      0.467400   -0.439100   -0.887800
H      0.484200   -0.448400    0.878300
H     -1.193900   -2.379200   -0.873100
H     -1.177200   -2.388400    0.874700
H     -3.659600   -1.860200    0.901100
H     -3.676300   -1.850900   -0.846400
