18
gdb_20167
C      0.003500    1.567300    0.136800
C      1.546700    1.572900   -0.052400
C      2.354600    1.371300    1.251900
C      2.073300   -0.158400    1.186200
O      1.024100   -0.579900    2.050900
C     -0.183200   -0.772000    1.314700
C     -0.030600    0.009900    0.016000
C      1.498700    0.014500   -0.248800
H     -0.368700    1.987700    1.076600
H     -0.520600    2.054300   -0.689200
H      1.946900    2.265800   -0.792500
H      3.417000    1.587900    1.104100
H      2.007000    1.879100    2.155900
H      2.937700   -0.814300    1.324800
H     -0.335500   -1.843300    1.107200
H     -1.019100   -0.424800    1.933400
H     -0.673800   -0.370800   -0.779200
H      1.932000   -0.539300   -1.079800
