14
gdb_3205
C     -0.040300    1.603500   -0.057400
C      0.047700    0.084700   -0.030300
C      0.702700   -0.670100   -1.204600
N      2.092900   -0.209500   -1.256500
C      1.719600   -1.325200   -0.312300
C      1.108800   -0.618700    0.879400
O      1.257600   -0.685900    2.063600
H      0.906200    2.033500   -0.392400
H     -0.835300    1.942900   -0.729400
H     -0.259600    1.986300    0.944000
H     -0.920300   -0.366900    0.222500
H      0.208400   -1.101600   -2.065300
H      2.548600   -0.662200   -2.049200
H      2.212200   -2.287100   -0.375000
