16
gdb_14427
O     -0.113700    1.469200   -0.070100
C     -0.012000    0.063500   -0.093000
C     -1.320900   -0.697900   -0.119500
C     -1.753100   -0.834100   -1.606600
C     -0.696900   -0.111200   -2.440200
C      0.344800   -0.659800   -1.430900
C     -0.729400   -1.761000   -0.998600
O     -0.665800   -3.108100   -0.762600
H      0.775700    1.836400   -0.038500
H      0.625500   -0.307800    0.721400
H     -2.041700   -0.827000    0.676800
H     -2.789900   -1.037100   -1.841800
H     -0.583900   -0.562300   -3.430100
H     -0.760900    0.977500   -2.521900
H      1.382000   -0.828600   -1.715000
H     -0.623200   -3.565400   -1.610100
