19
gdb_2799
C      0.133700    1.420000   -0.205900
C     -0.012400   -0.104100   -0.164100
C     -1.444500   -0.550100    0.140500
C     -2.424800   -0.450600   -1.070100
C     -2.215800   -1.967600   -1.333200
C     -1.663100   -2.087500    0.112300
O     -0.502400   -2.851000    0.349800
H      1.163600    1.712900   -0.433000
H     -0.512900    1.867500   -0.968900
H     -0.135500    1.869000    0.756900
H      0.316900   -0.534200   -1.117900
H      0.656100   -0.521600    0.596600
H     -1.783100   -0.060300    1.059900
H     -3.447800   -0.217100   -0.764200
H     -2.141700    0.232800   -1.874300
H     -3.087800   -2.570000   -1.601100
H     -1.420900   -2.149200   -2.061700
H     -2.466800   -2.370600    0.808400
H     -0.733400   -3.782400    0.280500
