22
gdb_14800
C     -0.022600    1.384300   -0.000700
O      0.001500   -0.021400   -0.000800
C      0.670300   -0.559700    1.119000
C      0.639300   -2.078700    1.021900
C      1.344800   -2.756000    2.199900
C      1.313800   -4.275000    2.102800
O      1.982600   -4.813300    3.222500
C      2.006600   -6.219000    3.222500
H      0.992800    1.812600   -0.021000
H     -0.557100    1.704200   -0.898600
H     -0.542900    1.786300    0.883800
H      1.713500   -0.198200    1.153600
H      0.186000   -0.224500    2.053400
H     -0.407600   -2.401500    0.967500
H      1.107200   -2.375500    0.075200
H      2.391700   -2.433200    2.254300
H      0.876900   -2.459200    3.146500
H      0.270600   -4.636500    2.068100
H      1.798100   -4.610200    1.168400
H      2.526900   -6.621100    2.338000
H      2.541100   -6.538900    4.120400
H      0.991200   -6.647300    3.242800
