15
gdb_14889
N      0.063000   -1.170900    0.000200
C     -0.005000   -0.014500    0.009700
C     -0.042400    1.413100    0.021400
C     -1.208400    2.073100    0.014100
C     -1.271300    3.571100    0.060400
O     -0.032600    4.183800    0.341200
C      1.037700    3.612000   -0.393200
C      1.276900    2.160800    0.027200
H     -2.151400    1.537200   -0.029800
H     -1.691100    3.943700   -0.893200
H     -1.961400    3.890600    0.850700
H      0.829500    3.658600   -1.474300
H      1.914900    4.230900   -0.189400
H      1.725000    2.120300    1.027200
H      1.984700    1.680300   -0.657100
