17
gdb_12226
C      0.606500    1.489200    0.191900
C      0.042500    0.080100    0.124200
N      0.617900   -0.734900   -1.001600
C      1.334400   -1.622200   -0.037000
C      2.812200   -1.336700   -0.208500
O      3.537400   -0.843000    0.625400
C      0.605200   -0.950100    1.161500
O      1.322900   -0.522200    2.276900
H      1.700100    1.481200    0.201200
H      0.280900    2.073000   -0.674400
H      0.264300    1.990300    1.102600
H     -1.052400    0.115600    0.102800
H     -0.090400   -1.231000   -1.529800
H      1.171600   -2.699900   -0.167300
H      3.192300   -1.569800   -1.226500
H     -0.202900   -1.595200    1.522500
H      2.241200   -0.387700    1.999600
