22
gdb_14795
C     -0.264600    1.769600   -0.387600
C     -0.139000    0.247600   -0.488800
C     -1.277800   -0.477700    0.214400
O     -1.088500   -1.869900    0.075200
C     -2.095300   -2.634800    0.694700
C     -1.768200   -4.102700    0.467500
O     -2.776100   -4.867000    1.087700
C     -2.579500   -6.252200    0.943800
H      0.564000    2.267000   -0.899700
H     -1.196200    2.125000   -0.841600
H     -0.257200    2.102900    0.656100
H     -0.124300   -0.064000   -1.539600
H      0.808900   -0.086100   -0.051100
H     -1.307300   -0.201100    1.283100
H     -2.248800   -0.179100   -0.218700
H     -2.144800   -2.430200    1.776600
H     -3.087600   -2.407400    0.272200
H     -1.719500   -4.309200   -0.614200
H     -0.776400   -4.331800    0.890400
H     -3.405200   -6.755500    1.452800
H     -2.575500   -6.557200   -0.114900
H     -1.630000   -6.580000    1.396600
