17
gdb_18625
C     -0.116300    1.522500    0.027600
C      0.009300    0.018300   -0.078200
C      0.675100   -0.726000   -1.199600
N      1.226800   -0.749000    0.173900
C      2.488500    0.045500    0.170500
C      2.720600    0.624800   -1.239400
C      1.592600    0.040500   -2.104200
O      1.499600    0.125700   -3.302400
H      0.692000    2.074300   -0.453900
H     -1.054800    1.841600   -0.436400
H     -0.151200    1.823700    1.080500
H     -0.863200   -0.494800    0.325200
H      0.222500   -1.627900   -1.600000
H      2.437400    0.814600    0.946400
H      3.291700   -0.642100    0.446600
H      2.698500    1.718000   -1.293000
H      3.677100    0.312400   -1.667700
