24
gdb_13452
C     -0.836300    0.538600    3.392900
C     -0.793700   -0.812100    2.673900
C     -1.815400   -0.919100    1.532400
C     -1.734900   -2.240400    0.792700
C     -2.492500   -3.485500    1.219500
C     -3.414000   -3.528200    2.421100
C     -2.857300   -2.780400   -0.072700
C     -4.168900   -2.049200   -0.274400
H     -0.095800    0.588500    4.197500
H     -0.631100    1.362700    2.700200
H     -1.821800    0.720500    3.836700
H      0.213700   -0.982200    2.271200
H     -0.970800   -1.621000    3.393800
H     -2.819900   -0.754200    1.937300
H     -1.643800   -0.097900    0.821800
H     -0.735100   -2.432400    0.406500
H     -1.943700   -4.415200    1.085800
H     -3.952400   -2.590800    2.578500
H     -4.164900   -4.318600    2.308000
H     -2.851800   -3.739000    3.337900
H     -2.524900   -3.290600   -0.974300
H     -4.513800   -1.535900    0.626100
H     -4.076700   -1.294200   -1.063400
H     -4.960000   -2.744900   -0.576500
