14
gdb_4228
C     -0.001300    1.581400    0.010500
C      0.007600    0.051500    0.002200
C     -1.406400   -0.538600    0.012600
C     -1.415900   -2.051300    0.004600
F     -0.785500   -2.560900    1.077100
F     -2.670100   -2.533100    0.014000
F     -0.806200   -2.549300   -1.085300
H      1.017900    1.978300    0.003000
H     -0.521500    1.981600   -0.866600
H     -0.504600    1.972100    0.901700
H      0.539300   -0.315200   -0.882600
H      0.556100   -0.324700    0.872700
H     -1.958900   -0.216700    0.901700
H     -1.975800   -0.207200   -0.862200
