17
gdb_13341
O     -0.120000    0.128000   -0.796800
C     -0.057300    1.178300   -0.193100
N      1.070100    1.711400    0.349000
C      2.380900    1.079900    0.273100
C      3.419500    1.892800   -0.551600
C      4.764300    1.741800    0.201600
C      4.337400    1.293900    1.579900
C      3.057100    0.932500    1.619100
H     -0.939900    1.825800   -0.017100
H      0.996300    2.596400    0.827500
H      2.187000    0.101300   -0.178600
H      3.466800    1.567100   -1.592900
H      3.113000    2.944300   -0.555700
H      5.405000    0.981500   -0.265500
H      5.350600    2.667500    0.214600
H      5.027800    1.236700    2.414400
H      2.529800    0.535600    2.479300
