18
gdb_15386
C      0.162100    1.522900    0.099000
C     -0.013600    0.007000    0.220200
C     -1.376500   -0.461100   -0.288900
N     -1.478800   -1.919700   -0.195600
C     -2.006300   -2.474300    1.034800
C     -2.812000   -2.532400   -0.230900
C     -4.003000   -1.723700   -0.337900
N     -4.959900   -1.084000   -0.455400
H      1.142600    1.835500    0.469200
H      0.079800    1.850200   -0.943200
H     -0.598700    2.060300    0.675400
H      0.769000   -0.514300   -0.342100
H      0.101900   -0.298400    1.268000
H     -2.182100    0.046800    0.266700
H     -1.497100   -0.191100   -1.344300
H     -1.536000   -3.382100    1.401100
H     -2.358500   -1.787000    1.802600
H     -2.867900   -3.464300   -0.786700
