11
gdb_1026
O     -0.017200   -0.060400   -0.000500
C     -0.001800    1.149500    0.009000
C      1.188600    1.983600    0.002500
C      1.329000    3.348500    0.011700
C      2.725900    3.612100   -0.001700
C      3.330100    2.387400   -0.017800
O      2.420500    1.394900   -0.015600
H     -0.937300    1.751100    0.023800
H      0.523400    4.066600    0.026200
H      3.217900    4.571500    0.000300
H      4.362800    2.077300   -0.031600
