14
gdb_625
O     -0.047900    1.267900   -0.492900
C      0.002300   -0.006600    0.140700
C     -1.385100   -0.590300    0.123800
C     -1.901700   -1.251700   -1.139600
C     -1.587000   -2.077700    0.080500
O     -0.439600   -2.881500    0.101200
H      0.828600    1.659300   -0.433200
H      0.692800   -0.688200   -0.373500
H      0.349600    0.086200    1.182200
H     -2.109300   -0.027600    0.705600
H     -2.936900   -1.106000   -1.427700
H     -1.202200   -1.318300   -1.966600
H     -2.425600   -2.478600    0.649900
H     -0.585200   -3.616700   -0.502800
