16
gdb_8766
C     -0.049600    1.586900   -0.025800
C      0.062600    0.052000    0.026900
C      0.706000   -0.458600   -1.203300
N      1.222200   -0.844300   -2.162200
N      0.746900   -0.440500    1.211000
C      2.144300   -0.094800    1.435600
C      0.102300   -1.278400    2.084200
O      0.583800   -1.742200    3.091500
H      0.934700    2.055100   -0.092200
H     -0.629400    1.890200   -0.900900
H     -0.552600    1.943000    0.876600
H     -0.950300   -0.366900    0.052400
H      2.263100    0.969400    1.664600
H      2.487800   -0.681300    2.287300
H      2.745200   -0.338800    0.553500
H     -0.937900   -1.484700    1.762900
