10
gdb_781
O      0.111200    1.399300   -0.110900
C      0.069800    0.039800   -0.045600
C     -0.010300   -0.803400   -1.135300
N     -0.026300   -2.062500   -0.617300
N      0.037100   -2.095400    0.718900
C      0.096400   -0.812800    1.080100
H      0.164500    1.748300    0.783500
H     -0.054800   -0.604100   -2.192600
H     -0.079100   -2.929200   -1.123700
H      0.155600   -0.545600    2.125700
