21
gdb_11574
C      0.025700    1.106600    0.726400
O      0.849800    0.123000    0.146400
C      0.454600   -0.299700   -1.154700
C      1.712800   -0.786100   -1.862900
C     -0.635600   -1.378700   -1.045300
N     -1.191400   -1.717800   -2.350900
C     -0.685500   -2.925200   -2.998300
C     -2.046700   -2.898000   -2.398900
H     -0.029300    2.011100    0.100500
H     -1.001200    0.755300    0.907600
H      0.471100    1.372400    1.688800
H      0.032000    0.552200   -1.710300
H      2.154200   -1.628000   -1.319200
H      1.485400   -1.105800   -2.882700
H      2.453600    0.016800   -1.904300
H     -0.219600   -2.255800   -0.517000
H     -1.455700   -0.991200   -0.430300
H     -0.553500   -2.867700   -4.075100
H      0.074800   -3.503400   -2.475700
H     -2.193100   -3.459300   -1.477100
H     -2.928700   -2.818700   -3.028300
