16
gdb_17177
C     -0.043200    1.559600   -0.036900
C     -0.067100    0.026200   -0.057600
C     -1.451800   -0.530100    0.015300
O     -2.427700   -0.207200   -1.028600
C     -3.193900   -1.062900   -0.139900
C     -1.992700   -1.989300    0.217100
O     -2.158100   -1.850900    1.656500
C     -2.526400   -0.532100    1.163600
H      0.980600    1.932900   -0.126800
H     -0.631900    1.966300   -0.863500
H     -0.462400    1.947200    0.897200
H      0.409500   -0.348600   -0.971500
H      0.497400   -0.384500    0.788300
H     -4.232200   -1.286200   -0.381200
H     -1.666300   -2.944800   -0.193100
H     -2.834400    0.235200    1.873500
