19
gdb_6781
C      0.020300    1.389900    0.041700
O      0.111700   -0.012800    0.055800
C      0.614000   -0.543900   -1.149600
C      0.667100   -2.059800   -1.026100
C      1.223000   -2.726200   -2.285000
C      1.102300   -4.249800   -2.233900
N      2.012700   -4.920600   -3.001200
O      0.259400   -4.826400   -1.575700
H      1.003600    1.864100   -0.111200
H     -0.657000    1.749400   -0.750000
H     -0.374400    1.703300    1.011300
H     -0.030600   -0.249500   -1.997900
H      1.618900   -0.133200   -1.358700
H      1.281100   -2.324400   -0.158600
H     -0.334300   -2.450300   -0.828300
H      0.660600   -2.390100   -3.168000
H      2.266700   -2.436300   -2.459000
H      2.665400   -4.445800   -3.599200
H      1.921500   -5.920100   -3.081200
