13
gdb_21262
C     -0.028100    1.416100    0.031400
O      0.015100   -0.016400   -0.025900
C      0.616300   -0.565400   -1.078100
C      0.667900   -1.975600   -1.150800
N      1.247300   -2.583600   -2.163800
N      1.797300   -1.842400   -3.142500
C      1.720100   -0.526300   -3.023700
N      1.150600    0.174200   -2.029300
H      0.981800    1.833300    0.047200
H     -0.564300    1.821700   -0.830200
H     -0.554600    1.651100    0.956000
H      0.231300   -2.594000   -0.373400
H      2.172300    0.048200   -3.827600
