16
gdb_7617
N     -0.306100    1.472500   -0.058300
C     -0.147900    0.042900    0.065500
C     -0.534000   -0.701300    1.330900
C     -1.416200   -0.822400    0.131400
N     -2.667500   -0.113900    0.125800
H     -1.301300    1.685900   -0.110500
H     -3.139300   -0.222200   -0.765500
H     -3.290700   -0.467400    0.843900
C      0.969500   -0.534900   -0.761900
O      1.553800    0.364700   -1.565900
O      1.291700   -1.696600   -0.728400
H      0.066000    1.957200    0.752300
H      1.070700    1.202300   -1.396900
H      0.070900   -1.559300    1.598100
H     -0.887300   -0.084700    2.151100
H     -1.339600   -1.758900   -0.417400
