18
gdb_9374
C      0.035600    1.428500   -0.276000
C      0.046900   -0.081900    0.041000
N      0.767700   -0.476200    1.251300
C      2.218900   -0.273700    1.225200
C      2.842500   -1.110200    2.343500
O      2.510100   -2.472300    2.209200
C     -1.335300   -0.584300    0.134800
N     -2.428400   -0.949400    0.213300
H      1.058600    1.791100   -0.402600
H     -0.518200    1.628100   -1.197400
H     -0.438100    1.988000    0.536300
H      0.521400   -0.610400   -0.796000
H      0.358900   -0.014600    2.059000
H      2.588200   -0.643700    0.261400
H      2.528200    0.779600    1.320700
H      3.933800   -1.027900    2.304800
H      2.520000   -0.707200    3.320700
H      1.568600   -2.481800    1.987600
