14
gdb_530
C     -0.033400    1.381300   -0.017100
O      0.003500   -0.025900    0.002500
C      0.674700   -0.541100    1.128100
C      0.641800   -2.069800    1.026100
C      1.313100   -2.713000    2.147100
C      1.872900   -3.217700    3.083200
H      0.978200    1.816300   -0.042300
H     -0.569700    1.681600   -0.920400
H     -0.559100    1.788500    0.861100
H      1.718000   -0.187400    1.161900
H      0.188400   -0.214600    2.061600
H     -0.404200   -2.393800    0.971200
H      1.109800   -2.367000    0.080100
H      2.364000   -3.676800    3.904700
