14
gdb_9952
O      0.135200    1.332900   -0.084400
C      0.154900   -0.040900    0.055200
C     -0.290300   -0.712500    1.326700
O     -0.738900    0.014300    2.411900
C     -1.216600   -0.742800    0.095200
O     -2.281700    0.156600    0.197000
C     -1.539700   -1.956100   -0.658600
O     -2.645100   -2.122800   -1.133700
H     -0.791800    1.605400   -0.132200
H      0.946600   -0.520800   -0.515600
H      0.204400   -1.640400    1.604300
H     -1.599200    0.387500    2.174300
H     -3.010100   -0.272800   -0.284800
H     -0.729800   -2.702600   -0.769500
