16
gdb_13613
O      0.074300    1.359000   -0.061600
C      0.022300   -0.033600   -0.020100
C     -1.408300   -0.541600    0.053400
O     -2.322500    0.279000    0.067400
C     -1.641000   -1.987800    0.065400
C     -2.872100   -2.513900    0.821400
C     -2.930400   -2.478300   -0.657100
O     -3.727200   -1.601000   -1.356300
H     -0.852100    1.647900   -0.039800
H      0.495600   -0.483300   -0.909800
H      0.569900   -0.431000    0.851400
H     -0.761600   -2.620900    0.021500
H     -2.755200   -3.464700    1.329300
H     -3.439400   -1.761600    1.359400
H     -2.816700   -3.411800   -1.198500
H     -3.659500   -0.734300   -0.921700
