15
gdb_4937
N      0.242700    1.345400    0.346900
C     -0.057300    0.013600    0.101400
C     -1.177100   -0.746100    0.270000
C     -0.795800   -2.089900   -0.085600
C     -1.659800   -3.315700   -0.074800
O     -1.121100   -4.378300   -0.845500
C      0.510800   -2.033100   -0.445100
O      0.976900   -0.740400   -0.334100
H      0.962900    1.702700   -0.267900
H     -0.572800    1.941600    0.330700
H     -2.145500   -0.404800    0.599900
H     -1.755300   -3.713300    0.943000
H     -2.679300   -3.053800   -0.403300
H     -0.978500   -4.035600   -1.734500
H      1.227900   -2.764200   -0.772600
