15
gdb_14118
N      0.432900    0.321400   -1.036000
C     -0.030900    0.192100    0.236600
O      0.552200    0.581200    1.231200
C     -1.339000   -0.523800    0.336600
C     -2.295800   -0.566400    1.531600
C     -2.709500   -2.017200    1.096400
C     -1.720400   -1.899300   -0.069500
O     -2.105400   -0.768800   -0.856600
H      1.278400    0.846200   -1.186600
H     -0.178500    0.117400   -1.808700
H     -1.757700   -0.543800    2.479500
H     -3.075500    0.197700    1.526500
H     -2.420200   -2.774300    1.827900
H     -3.749300   -2.170700    0.800200
H     -1.134400   -2.666400   -0.563100
