16
gdb_14932
O     -0.051600   -0.031800    0.031700
C     -0.007700    1.178600    0.015800
C      1.236500    1.959700   -0.016700
C      1.193200    3.299100   -0.012500
C      2.440600    4.131000    0.000900
C      3.647400    3.257200    0.364800
O      3.642300    2.052100   -0.377300
C      2.549100    1.216000   -0.049100
H     -0.937200    1.792200    0.026400
H      0.229200    3.805400   -0.016500
H      2.586000    4.590800   -0.986600
H      2.340500    4.960800    0.712000
H      4.588000    3.762000    0.130100
H      3.636400    3.043400    1.446400
H      2.714000    0.714100    0.919900
H      2.512700    0.428600   -0.807400
