22
gdb_9431
C     -0.009100    1.416900   -0.093200
O     -0.023700    0.025300    0.114900
C     -1.309600   -0.580900    0.037600
C     -1.770100   -0.744600   -1.413800
C     -1.206900   -1.925800    0.760100
C     -0.869200   -1.792600    2.247000
C     -0.726200   -3.139400    2.942000
O     -0.433300   -2.898900    4.311000
H      1.013900    1.758400    0.085000
H     -0.293400    1.698500   -1.118000
H     -0.682000    1.940000    0.604800
H     -2.035000    0.055900    0.574600
H     -1.067800   -1.378300   -1.964900
H     -2.760600   -1.209100   -1.452600
H     -1.836700    0.218500   -1.927900
H     -2.157600   -2.459400    0.634400
H     -0.439400   -2.525000    0.252300
H      0.062600   -1.231400    2.361800
H     -1.651300   -1.219800    2.761400
H     -1.658400   -3.718900    2.831800
H      0.075700   -3.722900    2.459800
H     -0.328300   -3.748300    4.749100
