18
gdb_9151
C     -0.059500    1.557300    0.079500
C     -0.047700    0.028700    0.122300
C     -1.450200   -0.576600   -0.090500
O     -2.030600   -0.157200   -1.325800
C     -1.423700   -2.036900    0.029100
C     -1.365600   -3.239300    0.100300
C     -1.372200   -4.699500    0.182600
O     -2.523700   -5.228000    0.824300
H      0.952600    1.959500    0.181600
H     -0.480800    1.913100   -0.864000
H     -0.667100    1.969600    0.892700
H      0.620300   -0.372700   -0.650900
H      0.340000   -0.330300    1.082400
H     -2.122400   -0.170200    0.676400
H     -1.569300   -0.624900   -2.031100
H     -1.248500   -5.117700   -0.829700
H     -0.516600   -5.047700    0.772100
H     -3.294500   -4.830800    0.405500
