11
gdb_21740
O     -0.074900    1.294800    0.009700
C      1.229800    1.801100    0.000000
C      2.163300    0.814100   -0.014300
C      1.416700   -0.419500   -0.014000
C      0.110900   -0.022000    0.000700
O     -0.772500   -1.000500    0.003800
N      0.009200   -2.204700   -0.010100
C      1.272900   -1.832800   -0.020400
H      1.287500    2.875900    0.005400
H      3.231100    0.963200   -0.023800
H      2.019700   -2.614500   -0.031900
