11
gdb_21336
N     -0.083800   -1.123200    0.343900
C     -0.025100    0.005800    0.111200
C      0.032400    1.437700   -0.188600
C      1.424100    1.992100   -0.156200
N      2.053100    2.597000   -1.116000
C      3.249600    2.900400   -0.508900
N      3.357900    2.514400    0.731600
O      2.123600    1.899500    0.977700
H     -0.374200    1.622200   -1.185900
H     -0.595000    1.973900    0.533300
H      4.054700    3.419900   -1.007400
