19
gdb_4070
C     -0.102600    1.462000    0.144700
C      0.058300   -0.022200   -0.042900
C      0.112800   -0.922500    1.168600
C      1.326400   -0.672100    2.050000
C      1.289200    0.345700    3.164300
C      1.323500   -1.127800    3.486400
N      0.167900   -0.613500   -1.171900
O      0.139900    0.279200   -2.258100
H     -0.462000    1.934500   -0.769000
H     -0.797400    1.670700    0.963900
H      0.855800    1.921200    0.412800
H     -0.796800   -0.776600    1.768500
H      0.111700   -1.959600    0.819100
H      2.273700   -0.766800    1.525500
H      2.177400    0.937500    3.356300
H      0.358800    0.876800    3.336600
H      0.416000   -1.582900    3.870200
H      2.235700   -1.546400    3.896500
H      0.181400   -0.322500   -3.008200
