13
gdb_714
C     -0.014400    1.489500   -0.133200
C      1.496000    1.405500    0.078000
C      1.383300    0.124300    0.813000
C     -0.013900   -0.047300    0.094100
C      0.816700   -0.550300   -1.096800
N      2.028300    0.131500   -0.530000
H     -0.488000    2.024200    0.694200
H     -0.402700    1.861400   -1.087900
H      2.214800    2.205300    0.197100
H      1.839600   -0.266800    1.712500
H     -0.900400   -0.562200    0.459000
H      0.995700   -1.628500   -1.082500
H      0.525300   -0.233900   -2.105900
