15
gdb_13179
O     -0.100900    1.415500   -0.066400
C      0.031800    0.012300    0.057900
C      0.593600   -0.592700   -1.164900
N      1.069900   -1.021700   -2.126200
C      0.871500   -0.365400    1.288900
C      0.230100   -0.044300    2.652600
C      0.255600   -1.574200    2.855600
O      0.840800   -1.778100    1.545400
H      0.753400    1.781900   -0.323100
H     -0.981800   -0.378000    0.198200
H      1.898300    0.002000    1.150300
H      0.852200    0.533200    3.336300
H     -0.758400    0.413900    2.595000
H      0.916400   -1.935600    3.651000
H     -0.717500   -2.069200    2.946600
