15
gdb_2197
C      0.108300    1.586500   -0.033400
C      0.090900    0.066500   -0.000000
C      0.684900   -0.770200   -1.184100
C      1.309100   -1.779300   -0.153200
O      2.585000   -2.312000   -0.329900
C      1.147500   -0.642800    0.858000
O      1.872900   -0.281200    1.744700
H      1.111000    1.959800   -0.263600
H     -0.582300    1.972500   -0.789400
H     -0.184200    1.998100    0.937100
H     -0.907700   -0.309500    0.252300
H     -0.019000   -1.186000   -1.905200
H      1.472700   -0.219700   -1.704700
H      0.594300   -2.591000    0.035700
H      3.186600   -1.791700    0.217900
