18
gdb_18769
C     -0.018400    1.441900    0.020500
C      0.006300   -0.054400   -0.042900
C     -0.953200   -0.965100    0.731800
C      0.543600   -1.062700    0.952900
C      0.557800   -2.093000   -0.214800
C     -1.017600   -2.185800   -0.215500
C     -1.053500   -1.634000   -1.662200
C      0.285200   -0.958600   -1.273600
H      0.944900    1.874300   -0.274400
H     -0.786500    1.858400   -0.642800
H     -0.237800    1.788200    1.036700
H     -1.715400   -0.571100    1.392300
H      1.141000   -0.936000    1.846600
H      1.230200   -2.934000   -0.364500
H     -1.575300   -3.067800    0.098000
H     -0.905000   -2.428300   -2.401500
H     -1.895200   -1.000800   -1.962000
H      1.017100   -0.623000   -2.008700
