18
gdb_18407
C     -0.027500    1.381600    0.040800
C      1.312600    2.127800   -0.047800
C      1.903600    2.121700   -1.447100
O      3.250000    1.664300   -1.614900
C      2.192300    0.868400   -2.160600
C      1.915500   -0.489100   -1.537600
C      0.445900   -0.673200   -1.129000
O      0.104800   -0.026900    0.083000
H     -0.533900    1.649200    0.973900
H     -0.686200    1.680700   -0.792300
H      1.167600    3.162900    0.283300
H      2.018300    1.662800    0.647300
H      1.662700    2.994600   -2.056400
H      2.146000    0.896700   -3.250800
H      2.191000   -1.279400   -2.245800
H      2.543600   -0.617400   -0.650900
H     -0.220700   -0.340000   -1.942800
H      0.245700   -1.735100   -0.952800
