10
gdb_21786
O     -0.062100   -0.006100   -0.002200
C      0.000600    1.190800    0.007100
C      1.297300    1.969300   -0.000100
N      1.184700    3.294900    0.012000
C      2.360400    3.914500    0.005400
N      3.550900    3.309600   -0.012000
N      3.575700    1.984100   -0.022700
N      2.453500    1.291900   -0.016900
H     -0.886800    1.854900    0.022500
H      2.370800    5.000900    0.012800
