19
gdb_7451
C      0.166300    1.582000    0.027300
C      0.041900    0.054000    0.014400
O     -1.292100   -0.363300    0.230500
C      0.631200   -0.584000   -1.271200
C      0.596600   -2.121900   -1.192300
C     -0.149500   -0.125900   -2.502900
N      0.586400    0.106000   -3.621400
O     -1.368100    0.005200   -2.503100
H      1.212300    1.900500   -0.050000
H     -0.394400    2.028500   -0.800400
H     -0.245000    1.973400    0.961300
H      0.619000   -0.347200    0.858500
H     -1.752700   -0.194900   -0.608500
H      1.673700   -0.254100   -1.368100
H      1.209500   -2.468200   -0.354400
H     -0.427700   -2.461100   -1.026600
H      0.979100   -2.582400   -2.108300
H      1.584600   -0.003600   -3.640500
H      0.105700    0.357100   -4.470300
