21
gdb_17272
C      0.049100    1.528500   -0.318300
C      0.161900    0.041900   -0.055100
C      1.488600   -0.624100    0.092000
N      0.581500   -0.521500    1.229200
C      0.953500    0.355400    2.334600
C      1.670600   -0.427900    3.410800
C      3.170500   -0.581500    3.377800
C      2.522100    0.290800    4.425000
H      0.900900    2.090500    0.072200
H      0.000100    1.711200   -1.397100
H     -0.863300    1.942000    0.126300
H     -0.638300   -0.538300   -0.514700
H      1.667700   -1.623800   -0.295900
H      2.363900    0.026100    0.081200
H      1.590800    1.202900    2.027100
H      0.028900    0.783400    2.743400
H      1.110100   -1.286700    3.767800
H      3.599900   -1.528100    3.686300
H      3.714800   -0.088300    2.578900
H      2.632300    1.366100    4.325700
H      2.504700   -0.057600    5.451600
