18
gdb_19659
C     -0.216500    1.630000   -0.042200
C      0.037000    0.129200   -0.001600
C      1.095300   -0.575200   -0.906800
C      2.412700    0.124600   -0.520500
C      2.365700   -0.387300    0.932500
O      2.500100   -1.826700    0.714400
C      1.163700   -1.726800    0.215700
C      0.802400   -0.554100    1.147200
H      0.684300    2.217800    0.154200
H     -0.610300    1.937900   -1.017300
H     -0.957500    1.910700    0.714400
H     -0.919300   -0.398000   -0.113000
H      0.899200   -0.785200   -1.957000
H      3.292700   -0.274800   -1.028300
H      2.385600    1.209200   -0.638000
H      3.044600    0.008100    1.686400
H      0.625800   -2.664900    0.089200
H      0.433200   -0.675500    2.164500
