20
gdb_7644
C     -0.203000    1.474700   -0.049700
C      0.017400   -0.038700   -0.062200
O      0.700800   -0.455600   -1.243100
C      0.730600   -0.539500    1.188300
C     -0.026600   -0.524100    2.548200
C      0.639800   -1.889100    2.870400
O     -0.063800   -2.870500    3.587100
C      0.922600   -2.071800    1.356800
H      0.756100    2.004800    0.011100
H     -0.710700    1.792500   -0.964300
H     -0.807100    1.782400    0.809900
H     -0.957300   -0.540600   -0.127200
H      1.561900   -0.022800   -1.249000
H      1.693100   -0.019500    1.285100
H      0.133600    0.308800    3.236400
H     -1.105900   -0.650300    2.394000
H      1.571900   -1.739000    3.423900
H     -0.879700   -3.057300    3.110600
H      0.105200   -2.617400    0.869500
H      1.869100   -2.523700    1.054200
