19
gdb_12740
C     -0.110300    1.559000   -0.003700
N      0.034000    0.126800    0.107700
C     -1.184600   -0.683900    0.317300
C     -0.431400   -1.541600    1.348800
O      0.404900   -2.562900    0.778400
C      1.570000   -1.699700    0.795700
C      0.721400   -0.501500    1.276200
C      1.221900    0.376000    2.397500
H      0.872700    2.038700   -0.047000
H     -0.629700    1.793700   -0.939500
H     -0.685000    2.026700    0.818800
H     -2.007300   -0.117700    0.785700
H     -1.560900   -1.198300   -0.573500
H     -0.956300   -1.874400    2.247300
H      2.316000   -2.061100    1.517200
H      2.022800   -1.585700   -0.194300
H      2.054800    1.006000    2.064100
H      0.437000    1.034600    2.781300
H      1.583700   -0.238300    3.227700
