15
gdb_7918
C     -0.032000    1.528600    0.010100
C      0.039300    0.002200    0.033400
O      0.783800   -0.463100   -1.085600
C      1.857200   -1.239300   -0.656000
O      2.619600   -1.731000   -1.440400
C      1.819000   -1.288200    0.803400
C      0.761600   -0.574000    1.235600
N      0.277700   -0.379000    2.493300
H      0.970400    1.957200    0.093100
H     -0.477700    1.861100   -0.930200
H     -0.650300    1.911200    0.829500
H     -0.974700   -0.418100   -0.027600
H      2.549000   -1.830400    1.384700
H      0.871100   -0.612800    3.273100
H     -0.340600    0.399100    2.654700
