12
gdb_21632
N      0.029500    1.306100   -0.132800
C     -0.031900   -0.023600   -0.023100
N     -1.160300   -0.663500    0.094100
C     -1.043400   -2.024600    0.196000
N      0.006800   -2.773000    0.194200
O      1.234800   -2.067000    0.065900
C      1.277700   -0.720700   -0.044200
N      2.355500   -0.056900   -0.160300
H      0.939100    1.732000   -0.220200
H     -0.816600    1.849700   -0.126700
H     -1.969400   -2.584400    0.294900
H      3.173800   -0.666600   -0.159500
