19
gdb_16533
C      0.225300    1.563400    0.014800
C      0.071800    0.054900   -0.035400
C      0.683800   -0.729900   -1.220600
O      1.968100   -0.251200   -1.667000
C      2.672600   -1.210100   -0.832700
C      1.355500   -1.648400   -0.174900
N      0.940200   -0.718500    0.898300
C      0.329900   -1.270700    2.086500
H      1.253400    1.841000   -0.228200
H     -0.447700    2.046900   -0.701800
H     -0.014600    1.944700    1.012800
H     -0.987800   -0.235800    0.074900
H      0.035700   -1.027700   -2.047400
H      3.163200   -1.976000   -1.447900
H      3.398000   -0.733400   -0.166000
H      1.143300   -2.708600   -0.019400
H      1.059900   -1.873500    2.637300
H      0.008100   -0.457900    2.746200
H     -0.553000   -1.906500    1.879600
