15
gdb_16655
O     -0.170300    1.471800   -0.206000
C     -0.066400    0.084800   -0.061700
C     -1.411000   -0.668400    0.044000
C     -1.172700   -1.986400   -0.696300
N     -1.159000   -1.789100   -2.151600
C      0.131300   -1.946700   -1.421200
C      0.717600   -0.579000   -1.198900
O      1.628100   -0.043300   -1.780300
H      0.578400    1.736700   -0.759900
H      0.526900   -0.174900    0.838900
H     -1.696600   -0.833100    1.085000
H     -2.198400   -0.091900   -0.447500
H     -1.554900   -2.918200   -0.294000
H     -1.354500   -2.666600   -2.629100
H      0.761200   -2.805600   -1.620200
