11
gdb_8729
O      0.114900    1.448100   -0.153700
C      0.028400    0.065700   -0.036800
C      0.639000   -0.634100   -1.187500
N      1.116100   -1.183700   -2.084400
C      0.724800   -0.403600    1.269900
O      1.284700    0.424700    1.952300
C      0.638900   -1.799100    1.590500
C      0.535200   -2.974600    1.825600
H      0.732500    1.730600    0.543100
H     -1.024300   -0.250500    0.020200
H      0.455900   -4.013500    2.041400
