13
gdb_9455
O      0.241500    1.441500    0.304500
C      0.018900    0.082000    0.058800
C     -1.484300   -0.308000   -0.111900
C     -1.171700   -1.049200   -1.449400
C      0.197000   -0.371700   -1.439600
O      1.021100   -0.076600   -2.247900
C      0.745100   -0.793300    0.988400
N      1.334500   -1.494500    1.694300
H      1.135600    1.655800    0.007800
H     -1.914100   -0.903900    0.691300
H     -2.067700    0.601700   -0.259200
H     -1.080000   -2.133000   -1.326300
H     -1.802300   -0.846100   -2.316900
