15
gdb_9810
C      0.098900    1.496400   -0.288200
C      0.046500   -0.002300   -0.067000
C      1.353800   -0.793700    0.023200
C      0.550000   -0.583600    1.256500
C     -1.075900   -0.769400   -0.668100
O     -1.233800   -1.965200   -0.566800
C     -2.060600    0.019000   -1.445300
N     -2.836900    0.621600   -2.054700
H      0.975400    1.917000    0.211600
H      0.169400    1.746700   -1.351400
H     -0.786900    1.996600    0.115500
H      1.346000   -1.783000   -0.418900
H      2.263400   -0.221200   -0.118300
H      0.888600    0.138100    1.991200
H     -0.000800   -1.431000    1.647400
