16
gdb_21200
C     -0.011100    1.366900    0.146400
N     -0.133800    0.010600   -0.360700
C     -1.292300   -0.692800   -0.136000
N     -1.337400   -2.023100   -0.189300
N     -2.665000   -2.268000    0.023500
C     -3.166400   -3.620600    0.041300
C     -3.316100   -1.108600    0.197300
N     -2.488800   -0.080900    0.107700
H      0.903200    1.811800   -0.254100
H     -0.864100    1.955700   -0.195100
H      0.019700    1.425200    1.244900
H      0.692100   -0.563200   -0.281000
H     -4.240200   -3.595300    0.236900
H     -2.985400   -4.105800   -0.922000
H     -2.669400   -4.199200    0.825000
H     -4.378400   -1.055900    0.385800
