11
gdb_21499
N     -0.083100    1.320000    0.008500
C      0.055200   -0.030800    0.002500
O      1.121000   -0.619000   -0.008600
C     -1.227700   -0.773800    0.010900
C     -1.428500   -2.121000    0.008200
O     -2.727200   -2.364700    0.018400
N     -3.380400   -1.074900    0.028300
N     -2.481400   -0.202000    0.023300
H      0.746400    1.889100    0.002900
H     -0.991100    1.753400    0.017100
H     -0.747600   -2.955800   -0.000400
