17
gdb_3045
O     -0.502500    0.687800    0.794700
C      0.056100    1.057300   -0.205800
C      1.366200    1.806900   -0.248200
C      1.235600    3.152800   -0.988200
C      2.563700    3.862000   -1.146200
C      3.479500    3.516200   -2.293900
C      2.774700    4.851500   -2.262200
H     -0.389100    0.863800   -1.211700
H      1.725200    1.944500    0.776000
H      2.093100    1.180300   -0.784700
H      0.796800    2.981600   -1.980500
H      0.530800    3.796300   -0.446400
H      3.055300    4.097900   -0.205400
H      4.549000    3.491700   -2.117600
H      3.133300    2.781600   -3.014500
H      1.958900    5.008400   -2.960500
H      3.361700    5.740600   -2.060900
