14
gdb_649
C     -0.047500    1.574700   -0.046300
C      1.499600    1.356100    0.001800
C      1.196500    0.170200    0.974100
C     -0.013200    0.027600    0.017500
O      0.590900   -0.345200   -1.232100
C      1.699600    0.582500   -1.306900
H     -0.436100    2.040200    0.860800
H     -0.482500    2.028500   -0.940100
H      2.206400    2.151600    0.235100
H      1.901800   -0.663500    1.015500
H      0.923400    0.505300    1.975900
H     -0.880500   -0.602700    0.207400
H      1.607700    1.206800   -2.203700
H      2.647500    0.032900   -1.350800
