15
gdb_3576
C     -0.036400    1.620400   -0.028200
C      0.142000    0.103700    0.030100
C      1.385600   -0.717000   -0.217900
C      2.663100   -0.159800    0.482300
O      2.347900    1.062000    1.164900
C      2.006100   -0.187100    1.782400
C      0.694000   -0.745700    1.150500
H      0.756500    2.102200   -0.602500
H     -0.992500    1.859400   -0.505800
H     -0.035300    2.069400    0.966200
H     -0.704400   -0.424200   -0.408700
H      1.429400   -1.507800   -0.956400
H      3.692800   -0.321600    0.187500
H      2.382400   -0.375900    2.780500
H      0.139000   -1.561300    1.597100
