15
gdb_13835
C     -0.113400    1.531600   -0.100200
C     -0.081200    0.026100    0.081200
O     -0.115700   -0.511800    1.159000
C      0.039900   -0.782500   -1.213400
C      1.534800   -0.945300   -1.658100
N      1.803800   -2.381900   -1.512400
C      0.709800   -2.906700   -1.153400
O     -0.392700   -2.134600   -0.993200
H      0.673600    1.867300   -0.784700
H     -1.070400    1.824300   -0.548800
H     -0.002800    2.024200    0.866100
H     -0.584900   -0.344200   -1.997300
H      1.695800   -0.634300   -2.695100
H      2.223300   -0.370400   -1.029800
H      0.547700   -3.960700   -0.960600
