19
gdb_16369
C     -0.787900    1.242400   -0.032500
C      0.026600   -0.041900   -0.084000
C      1.391900   -0.043700   -0.837400
C      1.994000   -0.923500    0.298900
O      3.299500   -0.682700    0.754200
C      0.793600   -0.517600    1.163300
C      0.850700    0.142200    2.488000
N      0.314900   -1.229200    2.338700
H     -0.175800    2.086600    0.302500
H     -1.190800    1.491400   -1.019900
H     -1.638500    1.151800    0.653600
H     -0.600400   -0.862400   -0.455100
H      1.416300   -0.439700   -1.854300
H      1.844800    0.954400   -0.835300
H      1.956000   -1.988800    0.051600
H      3.359900    0.248400    0.994200
H      1.795100    0.196600    3.023900
H      0.160500    0.956500    2.693500
H     -0.703000   -1.205600    2.368800
