15
gdb_3063
O      0.057200    1.138300   -0.747000
C     -0.047900    0.094900    0.217200
C     -1.383300   -0.482900    0.182100
C     -2.483300   -0.975300    0.169700
C     -3.794100   -1.553600    0.153500
C     -4.441600   -1.933800   -1.170200
C     -3.982500   -3.012700   -0.237200
H      0.950500    1.492600   -0.687200
H      0.694200   -0.697500    0.023900
H      0.152100    0.473100    1.233400
H     -4.471700   -1.180800    0.916200
H     -5.505300   -1.749800   -1.269400
H     -3.863100   -1.753500   -2.068000
H     -3.091300   -3.569600   -0.499800
H     -4.727800   -3.578200    0.310700
