18
gdb_17529
C      0.010000    1.566100    0.099300
C      0.110600    0.054300    0.091100
C      1.350000   -0.742300   -0.206000
C      2.612400   -0.068300    0.356700
C      1.956600   -0.137600    1.749400
C      2.602400   -0.350600    3.042600
O      1.978000    0.900900    2.721300
C      0.707600   -0.781100    1.199800
H      0.874600    2.039400    0.568700
H     -0.080500    1.955300   -0.921100
H     -0.875800    1.885700    0.658200
H     -0.775200   -0.428400   -0.319400
H      1.361200   -1.533700   -0.944800
H      3.504400   -0.696000    0.285600
H      2.850300    0.929800   -0.021900
H      2.100300   -0.937000    3.812100
H      3.689700   -0.327500    3.115400
H      0.153700   -1.578000    1.682200
