22
gdb_6890
C     -0.228200    0.961600   -1.959300
C     -0.001100   -0.198400   -1.010400
C      1.356800   -0.532700   -0.405200
C      2.606500    0.260000   -0.711500
O      3.254700   -0.199200   -1.892700
C      0.227100   -0.035400    0.480800
C      0.281500    1.347100    1.109700
C     -0.421500   -1.065000    1.391100
H      0.414400    1.819800   -1.749500
H     -0.041700    0.659700   -2.997000
H     -1.265100    1.312300   -1.907900
H     -0.596500   -1.070500   -1.273800
H      1.572300   -1.596000   -0.320700
H      2.398000    1.337200   -0.773800
H      3.341200    0.127100    0.090600
H      2.604500   -0.170700   -2.602100
H      0.708600    2.107400    0.453600
H     -0.726400    1.679900    1.385000
H      0.880200    1.330400    2.028000
H      0.130700   -1.163700    2.333600
H     -1.450500   -0.778000    1.639900
H     -0.454700   -2.052300    0.920200
