15
gdb_12258
O     -0.017700    1.300300   -0.391400
C      0.031200   -0.088300   -0.125000
C     -1.328600   -0.601400    0.303400
O     -2.304700   -0.430900   -0.800600
C     -2.442000   -1.793400   -0.937200
N     -3.028500   -2.497500   -1.791400
C     -1.576600   -2.128800    0.263500
O     -0.447100   -2.928600    0.026100
H     -0.671600    1.427700   -1.088300
H      0.386400   -0.665600   -0.988900
H      0.748500   -0.235400    0.688600
H     -1.693600   -0.076800    1.189100
H     -3.480800   -1.934900   -2.513600
H     -2.158100   -2.491300    1.121300
H     -0.712100   -3.620700   -0.590800
