16
gdb_5332
C     -0.260300    1.503500    0.124900
C      0.058900    0.051700   -0.038300
C     -0.024000   -0.701500   -1.199000
N      0.404400   -1.949500   -0.803700
C      0.654300   -3.399500   -0.921400
C      1.024000   -3.366300    0.616800
C      0.687500   -1.887900    0.511000
N      0.502500   -0.706600    1.044200
H      0.622400    2.070000    0.441900
H     -0.622800    1.934300   -0.812600
H     -1.029000    1.652900    0.890700
H     -0.316300   -0.445900   -2.203000
H     -0.236400   -3.981400   -1.172400
H      1.470700   -3.654600   -1.602000
H      0.366900   -3.963900    1.253000
H      2.064500   -3.612000    0.841900
