13
gdb_21926
O     -0.004000    1.426800    0.007100
C      0.008100    0.015900    0.002300
C     -1.408900   -0.493300    0.012400
C     -2.524200    0.352000    0.023700
N     -3.764900   -0.127500    0.032400
N     -3.939400   -1.447800    0.030200
C     -2.850500   -2.215600    0.019400
N     -1.578300   -1.811300    0.010200
H      0.903900    1.741400    0.000900
H      0.510700   -0.396100   -0.887000
H      0.525600   -0.402100    0.880100
H     -2.416200    1.429400    0.025800
H     -3.031700   -3.287000    0.017800
