19
gdb_9756
C      0.061100    1.541200   -0.007500
C     -0.066900    0.019300    0.096000
C     -1.504500   -0.527800   -0.025000
C     -2.160900   -0.147400   -1.358400
C     -1.533400   -2.071300    0.209700
O     -2.399100   -2.255000    1.354900
C     -2.748900   -1.003800    1.736900
N     -2.334500    0.000100    1.088300
H      1.089800    1.852500    0.198900
H     -0.196100    1.906600   -1.006100
H     -0.597800    2.031600    0.713500
H      0.549500   -0.463100   -0.674800
H      0.332200   -0.310500    1.063100
H     -1.557600   -0.497700   -2.203600
H     -3.155200   -0.597500   -1.436400
H     -2.278200    0.935200   -1.439800
H     -1.956400   -2.630700   -0.629300
H     -0.551200   -2.485800    0.457000
H     -3.390000   -0.970300    2.611500
