15
gdb_5925
C      0.015000    1.576300    0.007000
C      0.009700    0.039700    0.069500
C      0.795900   -0.513000    1.270200
O     -1.344400   -0.485100    0.039100
C     -2.195700   -0.193200    1.047000
O     -3.315700   -0.603600    1.061200
C      0.611400   -0.486300   -1.172700
N      1.129800   -0.871300   -2.129600
H      1.036900    1.937800   -0.131200
H     -0.595100    1.921100   -0.830500
H     -0.375500    2.002200    0.934300
H      0.410400   -0.102400    2.206500
H      0.722300   -1.602100    1.299300
H      1.849000   -0.234700    1.183100
H     -1.762600    0.445700    1.834800
