13
gdb_1223
C      0.065600    1.255300    0.216700
C      0.119600   -0.220300   -0.114400
O      0.151200   -1.091200    0.718900
C      0.106100   -0.567400   -1.608300
O      0.533200   -1.889700   -1.862200
C     -0.310400   -2.888600   -1.503300
O     -0.010700   -4.037100   -1.605500
H      1.030700    1.717500   -0.022700
H     -0.692700    1.769000   -0.384300
H     -0.142400    1.390200    1.278300
H     -0.911200   -0.386400   -1.989500
H      0.778800    0.091200   -2.164200
H     -1.290800   -2.520100   -1.150800
