15
gdb_17879
O      0.000900    0.026300   -0.031300
C     -0.013100    1.213900    0.087400
C     -1.082600    2.326200    0.002900
C     -1.215300    3.003100    1.368600
O     -0.004600    2.881900    2.106300
C      1.179600    3.035000    1.332200
C      1.023600    2.354100   -0.029000
N     -0.051300    3.119500   -0.767800
H     -2.038800    2.146200   -0.491100
H     -1.486900    4.057600    1.212800
H     -1.986300    2.519900    1.975900
H      1.418100    4.096200    1.168700
H      1.981100    2.572600    1.915700
H      1.968700    2.199400   -0.551900
H     -0.061900    2.807200   -1.737700
