14
gdb_13302
N     -0.051600   -1.154400    0.095200
C     -0.008900   -0.000700    0.129000
C      0.046600    1.459100    0.153400
C      1.452600    2.015000   -0.117000
C      1.530900    3.564100   -0.025300
N      2.362700    3.833000    1.158900
C      2.743500    2.700100    1.575000
O      2.347400    1.572100    0.930900
H     -0.642400    1.851000   -0.603900
H     -0.303600    1.818000    1.127700
H      1.834700    1.619300   -1.060800
H      1.993100    4.009700   -0.911700
H      0.544000    4.024900    0.094300
H      3.385500    2.522300    2.430100
