15
gdb_17719
C     -0.045400    1.570000   -0.010200
N      1.473000    1.304400   -0.038200
C      1.257500    0.167000    0.989900
C      1.771700   -1.030500    0.154900
C      0.627500   -2.070700    0.283900
C     -0.532000   -1.391500    0.264000
C     -0.022400    0.036700    0.122500
C      1.196000    0.008000   -0.837900
H     -0.367000    2.158300    0.854800
H     -0.427500    2.002100   -0.940300
H      1.319600    0.352500    2.064900
H      2.805100   -1.377900    0.150400
H      0.770700   -3.139000    0.371900
H     -1.543000   -1.765300    0.330600
H      1.185100    0.004900   -1.930500
