17
gdb_1560
C     -0.112600    1.570300    0.043000
C     -0.033100    0.061700    0.204100
O     -1.317200   -0.480400   -0.051600
C     -1.380300   -1.890400   -0.091300
C     -1.314200   -2.569800    1.277100
C     -2.674300   -2.224100   -0.829500
O     -3.235200   -3.286000   -0.769400
H      0.863900    2.024900    0.234200
H     -0.427600    1.832600   -0.970900
H     -0.835400    1.992800    0.746500
H      0.699200   -0.367100   -0.500600
H      0.304200   -0.196100    1.219300
H     -0.564400   -2.281400   -0.730500
H     -1.555300   -3.629200    1.161600
H     -0.321000   -2.481400    1.723700
H     -2.045600   -2.118800    1.954000
H     -3.048900   -1.383600   -1.453800
