20
gdb_14164
C     -0.131100    1.526400    0.006500
C     -0.024400   -0.001800    0.015500
C     -1.399500   -0.590800    0.335100
C      0.805600   -0.610300   -1.189500
C      2.097900   -0.214200   -0.404000
C      1.195800   -0.615000    0.783500
O      1.032800   -2.033300    0.584700
C      0.769500   -2.101200   -0.840000
H      0.782700    2.041300   -0.293200
H     -0.922200    1.839100   -0.684900
H     -0.409400    1.894800    1.000500
H     -2.082200   -0.474000   -0.514800
H     -1.343500   -1.648000    0.596500
H     -1.848800   -0.064400    1.184700
H      0.627600   -0.324500   -2.226700
H      2.986400   -0.830800   -0.557400
H      2.356000    0.840300   -0.457200
H      1.421200   -0.418900    1.831700
H     -0.197000   -2.582300   -1.022900
H      1.554000   -2.681500   -1.339800
