12
gdb_21615
N      0.023700    1.364900    0.151400
C     -0.036700   -0.008300    0.040100
N     -1.132200   -0.739700    0.051400
C     -0.641100   -2.022900   -0.003600
N      0.681300   -2.118300   -0.056900
N      1.054500   -0.808200   -0.024900
C     -1.480600   -3.167200   -0.011400
C     -2.203100   -4.128000   -0.017700
H      0.723800    1.815700   -0.421200
H     -0.887800    1.783800    0.026800
H      2.031400   -0.569000    0.002200
H     -2.839000   -4.978300   -0.022800
