18
gdb_14843
C     -0.025000    1.546200   -0.100800
C      0.041600    0.028900    0.052400
N     -1.284700   -0.554300    0.147500
C     -2.091400   -0.351100    1.370300
C     -2.618000   -1.798100    1.226200
C     -1.393300   -2.017100    0.292400
C     -1.574700   -2.765700   -0.951300
N     -1.722600   -3.365100   -1.928300
H      0.980800    1.966900   -0.189000
H     -0.598000    1.817500   -0.991700
H     -0.504600    2.011400    0.767000
H      0.533700   -0.413100   -0.822200
H      0.658800   -0.232700    0.935200
H     -1.476200   -0.223300    2.276300
H     -2.815900    0.465700    1.314400
H     -2.659800   -2.417100    2.121200
H     -3.561900   -1.857100    0.684600
H     -0.548900   -2.462000    0.845600
