16
gdb_19475
O     -0.099400    1.411600   -0.271400
C      0.003600    0.043400    0.108600
C     -1.397200   -0.533900    0.072000
C     -1.974100   -0.834800   -1.353900
O     -1.135000   -2.040500   -1.375300
C     -1.505800   -2.095800    0.042600
C     -3.031100   -2.290500   -0.041500
C     -3.351600   -1.423800   -1.004600
H      0.788400    1.778700   -0.309900
H      0.650800   -0.520900   -0.574900
H      0.412700   -0.054800    1.127900
H     -2.059200   -0.004500    0.761400
H     -1.846700   -0.172200   -2.207600
H     -0.894800   -2.765100    0.648000
H     -3.639500   -2.958500    0.549600
H     -4.304500   -1.164100   -1.441000
