14
gdb_13838
N      0.489700    0.149800    0.885000
C     -0.135500    0.417000   -0.286400
O      0.219500    1.260000   -1.087200
C     -1.393300   -0.414400   -0.561800
C     -1.370000   -1.111000   -1.949700
N     -1.330900   -2.550600   -1.643100
C     -1.429600   -2.646400   -0.388100
O     -1.531600   -1.516900    0.372900
H      1.323700    0.661800    1.119300
H      0.158000   -0.585900    1.484400
H     -2.256100    0.243800   -0.431800
H     -2.261900   -0.889300   -2.543100
H     -0.499300   -0.807100   -2.535400
H     -1.450000   -3.568600    0.181400
