12
gdb_4332
O     -0.045500    1.317300    0.009900
C     -0.002000   -0.021200    0.002800
N      1.168900   -0.595400   -0.006800
C      1.263600   -1.970000   -0.014400
O      2.292500   -2.607400   -0.023500
N      0.020200   -2.664400   -0.011000
C     -1.185000   -2.052200   -0.001000
C     -1.259300   -0.696700    0.006400
H      0.877800    1.613700    0.006200
H      0.098500   -3.670600   -0.016600
H     -2.057700   -2.695200    0.000600
H     -2.194500   -0.158900    0.014500
