16
gdb_7801
C     -0.020400    1.490700    0.091600
C     -0.046000   -0.014600   -0.113300
C      0.854400   -0.498500   -1.237200
O      0.828300   -1.910000   -1.290600
C      1.383100   -2.467800   -0.119800
C      0.963700   -1.815500    1.196100
O      1.219800   -2.321600    2.254000
O      0.345200   -0.617000    1.147200
H      0.998800    1.839000    0.284300
H     -0.404600    2.002400   -0.796100
H     -0.643200    1.764900    0.946300
H     -1.068500   -0.354100   -0.321600
H      0.485400   -0.132900   -2.199300
H      1.882400   -0.124700   -1.092800
H      1.089600   -3.518800   -0.078800
H      2.485200   -2.430900   -0.144600
