20
gdb_9285
C      0.112500    1.592900    0.141900
C      0.003700    0.071100    0.017800
C      0.660300   -0.480600   -1.253100
O      2.040300   -0.125100   -1.329700
C      0.473100   -1.999200   -1.390900
C      1.074900   -2.552100   -2.692900
C      1.123000   -4.059700   -2.702300
O      0.640500   -4.768300   -3.547800
H      1.157300    1.910800    0.096900
H     -0.420100    2.092100   -0.674800
H     -0.316200    1.944600    1.084800
H      0.470900   -0.411500    0.889600
H     -1.049600   -0.234800    0.031800
H      0.209800    0.009900   -2.126300
H      2.472200   -0.460700   -0.535200
H      0.943900   -2.490500   -0.526000
H     -0.595400   -2.240100   -1.339100
H      0.519200   -2.211300   -3.571400
H      2.104700   -2.177600   -2.772200
H      1.660600   -4.501200   -1.827900
