18
gdb_15604
O     -0.138700    1.423500    0.516400
C      0.030800    0.086800    0.047200
C      0.717500   -0.795700    1.096700
C     -0.367700   -0.986300    2.172500
C     -1.710800   -1.001700    1.389700
C     -1.376500   -0.542600   -0.060900
C     -2.410500    0.402400   -0.635500
O     -2.954900    0.249700   -1.699600
H      0.733800    1.803400    0.657800
H      0.547200    0.083400   -0.922100
H      0.990500   -1.753600    0.637800
H      1.639100   -0.343700    1.480000
H     -0.217700   -1.894700    2.760900
H     -0.349600   -0.141900    2.865800
H     -2.165700   -1.995000    1.372600
H     -2.439900   -0.330200    1.854200
H     -1.313300   -1.400200   -0.736200
H     -2.650800    1.268000    0.017500
