12
gdb_3151
O      0.004100   -0.000300   -0.041700
C      0.018800    1.198500   -0.029500
N     -0.966300    2.164600   -0.054900
C     -0.078200    3.333600   -0.014400
C      1.079100    2.313900    0.047000
C      2.369000    2.335800    0.734200
O      2.266700    2.371500   -0.697500
H     -1.971000    2.089800   -0.024300
H     -0.089400    3.942400   -0.923400
H     -0.201500    3.968600    0.868600
H      2.712200    3.257800    1.200200
H      2.765100    1.410700    1.147900
