16
gdb_9895
O      0.322600    1.229200   -0.357200
C      0.152000   -0.135700   -0.089200
C      1.144900   -1.008300   -0.815000
O      2.479100   -0.676500   -0.401500
C      3.217100    0.092500   -1.227400
O      4.295500    0.507400   -0.926100
C     -0.370700   -0.541700    1.264000
C     -1.266500   -0.601400    0.043000
H      1.050400    1.546800    0.189700
H      0.994100   -2.065500   -0.582300
H      1.047800   -0.866800   -1.899000
H      2.720100    0.280700   -2.197900
H     -0.020700   -1.470700    1.700800
H     -0.554100    0.256300    1.974300
H     -2.026600    0.163800   -0.058200
H     -1.537600   -1.572300   -0.357800
