18
gdb_17883
C     -0.220700    1.612700    0.068400
C      0.025800    0.116400    0.006600
C      0.824500   -0.566800   -1.134800
C      2.091000    0.206800   -1.539000
C      2.874800    0.562200   -0.292000
C      2.395500    0.179800    0.892000
C      1.105200   -0.611500    0.863900
O      1.210000   -1.611900   -0.197800
H      0.706800    2.186800    0.004000
H     -0.876200    1.928200   -0.751200
H     -0.718500    1.885200    1.005700
H     -0.914000   -0.431700    0.120500
H      0.278000   -0.961100   -1.996600
H      2.700100   -0.410400   -2.212200
H      1.827200    1.111100   -2.105000
H      3.805200    1.113100   -0.395600
H      2.884000    0.409300    1.833000
H      0.824700   -1.052400    1.822900
