21
gdb_10302
C      0.041800    1.609600    0.092300
C     -0.041500    0.084100   -0.006800
C      0.695300   -0.503400   -1.235200
C      2.099600   -0.073200   -1.216300
N      3.206000    0.260800   -1.178200
C      0.614500   -2.054600   -1.350800
C     -0.839700   -2.544500   -1.398700
C      1.385400   -2.560100   -2.578600
H      1.077300    1.948900    0.185600
H     -0.389300    2.087900   -0.794200
H     -0.511200    1.967900    0.965400
H      0.369600   -0.374300    0.900600
H     -1.090900   -0.217700   -0.066800
H      0.245300   -0.074100   -2.142600
H      1.090300   -2.468400   -0.451800
H     -1.383200   -2.084000   -2.232600
H     -0.863200   -3.627800   -1.550500
H     -1.388100   -2.331900   -0.477900
H      2.432300   -2.246500   -2.559200
H      1.360300   -3.653100   -2.621800
H      0.936100   -2.181700   -3.504700
