12
gdb_18430
O     -0.068100    0.046600   -0.275900
C     -0.026200    1.184700    0.117100
C      1.225200    2.001100    0.068400
C      1.250100    3.480200   -0.138800
O      0.045800    4.087900    0.396500
C      0.434100    3.719700    1.688100
O     -0.082200    4.020100    2.709900
C      1.653700    2.967900    1.209000
H     -0.917100    1.691300    0.536700
H      2.070500    1.465100   -0.355000
H      1.789800    4.025500   -0.899500
H      2.607300    2.873700    1.706300
