16
gdb_5070
C     -0.152000    1.577500    0.098800
C     -0.025200    0.089700    0.036900
C      0.015300   -0.689400   -1.080200
N     -0.016900   -0.338800   -2.433800
O      0.088900   -2.010300   -0.750500
C      0.101700   -2.077300    0.622000
C      0.041300   -0.824300    1.151100
N     -0.058400   -0.438500    2.497200
H      0.770200    2.064100    0.444500
H     -0.382500    1.975500   -0.892700
H     -0.950500    1.878700    0.786800
H      0.911500   -0.230400   -2.831800
H     -0.507700   -1.039200   -2.979400
H      0.119200   -3.065400    1.049700
H      0.206200   -1.176300    3.137400
H      0.488800    0.388200    2.703600
