20
gdb_17918
C     -0.141700    1.540600   -0.001900
C      0.060700    0.028000    0.009600
C      1.050900   -0.576200   -1.020200
C      2.417100   -0.016300   -0.550900
C      2.272700   -0.028600    1.006000
C      0.846800   -0.584400    1.185200
O      0.876200   -1.981900    0.852400
C      0.988100   -2.047900   -0.584100
H      0.796600    2.096900    0.071400
H     -0.639700    1.856100   -0.924900
H     -0.776000    1.852400    0.835000
H     -0.915900   -0.463900   -0.063100
H      0.823500   -0.415300   -2.075600
H      3.246300   -0.637900   -0.900000
H      2.588400    0.993100   -0.934300
H      2.994600   -0.686400    1.494500
H      2.382200    0.969800    1.440800
H      0.419800   -0.483900    2.184500
H      0.113200   -2.570000   -0.995100
H      1.887100   -2.613900   -0.859700
