16
gdb_14951
O     -0.884400    1.113700    0.125600
C      0.255700    0.739300    0.047700
C      1.452300    1.676100    0.051700
C      1.309100    2.854000    1.021300
C      2.639500    3.608900    1.057300
O      3.710900    2.711300    1.330200
C      3.762700    1.680900    0.386900
O      2.593600    0.894500    0.369300
H      0.530700   -0.333900   -0.045700
H      1.551500    2.069100   -0.980100
H      0.486500    3.501700    0.706100
H      1.077900    2.469400    2.019500
H      2.815000    4.116600    0.093400
H      2.657100    4.363100    1.847300
H      3.934300    2.100000   -0.624000
H      4.584700    1.021400    0.670000
