14
gdb_19543
N     -0.126800   -1.165900   -0.002200
C     -0.072900   -0.008700    0.001300
C      0.003100    1.400000    0.021100
C     -0.754500    2.481100    0.799900
C      0.559200    3.120600    1.245700
C      1.187700    2.452600   -0.012400
N      0.535600    3.084700   -1.196600
C     -0.716500    2.486200   -0.737700
H     -1.672500    2.346200    1.356100
H      0.620200    4.213000    1.309000
H      0.926400    2.670200    2.170700
H      2.249800    2.233000   -0.087200
H      0.544500    4.105700   -1.153500
H     -1.599700    2.397900   -1.356700
