13
gdb_21251
C     -0.035700    1.399400   -0.018800
O     -0.064700   -0.026800   -0.025500
C      0.568200   -0.610000   -1.065900
C      0.660000   -1.972100   -1.264300
O      0.214500   -3.049100   -0.587700
N      1.367900   -2.080100   -2.407700
N      1.702600   -0.864400   -2.901100
N      1.208000    0.023200   -2.072000
H      0.993400    1.770600    0.024300
H     -0.515800    1.805700   -0.914900
H     -0.583800    1.705000    0.873400
H     -0.260200   -2.730000    0.189000
H      1.648100   -2.918900   -2.890000
