16
gdb_9097
C     -0.272900    1.364000    0.013200
C     -0.032600   -0.144600    0.002600
O      0.649200   -0.620900   -1.144300
C     -0.105800   -0.648800   -2.330200
C      0.688400   -1.415200   -3.376300
O      0.336000   -1.535500   -4.518400
C      0.806500   -0.598300    1.195400
O      0.726000   -0.119700    2.294700
H      0.662400    1.895000   -0.185900
H     -1.013300    1.660800   -0.733800
H     -0.634300    1.657300    1.001500
H     -1.001600   -0.671000    0.097000
H     -1.073000   -1.160000   -2.184100
H     -0.325300    0.355900   -2.720700
H      1.627500   -1.863000   -2.983400
H      1.496400   -1.436100    0.954700
