21
gdb_7346
C     -0.027600    1.403400    0.141500
C      0.044400   -0.028200   -0.393800
N     -1.255900   -0.677100   -0.448400
C     -1.606600   -1.712800    0.369400
O     -0.842600   -2.201100    1.186200
C     -3.035500   -2.236800    0.193200
C     -2.982000   -3.711900   -0.233600
C     -3.800400   -2.065600    1.515000
H      0.969100    1.855800    0.158000
H     -0.669000    2.033300   -0.485300
H     -0.428600    1.416000    1.159000
H      0.496200   -0.035900   -1.393800
H      0.661200   -0.652600    0.255800
H     -1.950100   -0.306400   -1.076500
H     -3.544500   -1.658700   -0.589500
H     -2.418800   -4.289700    0.504100
H     -3.991300   -4.128200   -0.310100
H     -2.490000   -3.831200   -1.204300
H     -3.271400   -2.585100    2.318300
H     -3.888400   -1.010700    1.794600
H     -4.809600   -2.480900    1.432700
