18
gdb_16173
C     -0.247800    1.542700   -0.098900
C     -0.011000    0.035900    0.060200
C      0.794100   -0.552500   -1.064900
C      0.198100   -0.972600   -2.402000
C      0.872900   -1.981800   -1.487300
O      2.229000   -2.278600   -1.712300
C      2.896500   -1.031900   -1.797600
O      2.127400   -0.075900   -1.095400
H      0.703800    2.079300   -0.143100
H     -0.798300    1.758700   -1.020400
H     -0.825300    1.938600    0.741600
H      0.513300   -0.163400    1.002500
H     -0.970100   -0.492400    0.110600
H     -0.885000   -1.019400   -2.456500
H      0.681900   -0.683700   -3.328300
H      0.336900   -2.805700   -1.032800
H      3.885200   -1.116800   -1.334800
H      3.005500   -0.732800   -2.853400
