20
gdb_12852
C     -0.053200    1.586700   -0.104600
C      0.009200    0.069700   -0.011400
C     -1.314100   -0.629500    0.448500
C     -0.593700   -1.193700    1.705100
C      0.742300   -0.555100    1.228900
O      1.723900   -1.456900    0.752000
C      1.349200   -1.853700   -0.563500
C      0.714400   -0.608000   -1.198100
H      0.947500    2.016600   -0.226500
H     -0.661000    1.906500   -0.959300
H     -0.499100    2.023900    0.795700
H     -2.129300    0.066400    0.662600
H     -1.690800   -1.387100   -0.245000
H     -0.960700   -0.794500    2.653900
H     -0.552300   -2.282700    1.784000
H      1.231000    0.120500    1.935900
H      2.248800   -2.204300   -1.076100
H      0.630400   -2.688200   -0.531500
H      0.032300   -0.851800   -2.018200
H      1.497900    0.049100   -1.591200
