15
gdb_18465
O      0.074200    1.234900    0.437700
C      0.081800   -0.032400   -0.189200
C     -1.303300   -0.644600   -0.208400
C     -1.640700   -2.074900   -0.134100
C     -0.662900   -2.902100    0.701100
C     -0.920100   -1.854800    1.794700
O     -0.525200   -1.650100    2.900100
N     -1.953500   -1.147500    1.055900
H     -0.211800    1.108200    1.349800
H      0.404000    0.139100   -1.222100
H      0.816100   -0.707200    0.271800
H     -2.020000   -0.030500   -0.749100
H     -2.459800   -2.498100   -0.703400
H     -1.070400   -3.875100    0.988600
H      0.362200   -3.033900    0.348600
