15
gdb_14254
C      0.453100    1.488100   -0.008300
C      0.118400    0.016900    0.075800
O      0.895600   -0.814900   -0.841400
C      1.300200   -1.702500    0.220400
C      0.611000   -0.815500    1.273700
O      1.911700   -0.396300    1.778600
C      2.582100   -1.240200    0.893300
N      3.801100   -1.483200    0.761400
H      1.494900    1.665900    0.265400
H      0.289700    1.846900   -1.028600
H     -0.191800    2.063200    0.664600
H     -0.951500   -0.158600   -0.102900
H      1.142200   -2.758800    0.006200
H     -0.061700   -1.116600    2.073700
H      4.369700   -0.937200    1.411400
