14
gdb_17507
C      0.094100   -1.213500    0.023400
C      0.027700   -0.014100   -0.021300
C     -0.089000    1.410500   -0.082200
C     -1.137600    2.223200    0.739600
C     -0.902900    3.326500   -0.287800
C      0.583100    3.187300   -0.664300
O      1.151600    2.158700    0.143300
C     -0.424500    2.328100   -1.337300
H      0.162100   -2.272500    0.066000
H     -2.135300    1.789400    0.647300
H     -0.879700    2.398000    1.788100
H     -1.465700    4.237300   -0.442800
H      1.217800    3.986900   -1.020200
H     -0.694400    2.123000   -2.363200
