15
gdb_19683
O     -0.214300   -0.052600    0.041400
C     -0.063100    1.140300   -0.024900
C      1.238300    1.891800    0.102600
C      1.507500    2.804000    1.300100
C      2.195400    1.912200    2.355600
C      2.270800    0.524000    1.744200
N      2.537100    1.171800    0.390300
C      2.956400    2.437800    1.178200
H     -0.929700    1.820000   -0.211700
H      1.363700    2.459700   -0.830100
H      1.072700    3.762600    1.553800
H      2.255900    2.229400    3.389400
H      3.176200   -0.007700    2.046900
H      1.412700   -0.147400    1.771700
H      3.867000    2.999900    1.030200
