21
gdb_7180
C      0.160500    1.394500    0.030300
C      0.012600   -0.129100   -0.000500
C     -1.450200   -0.584200   -0.005900
C     -1.641100   -2.109900   -0.024500
C     -3.114500   -2.505200    0.128400
N     -1.077700   -2.699900   -1.238200
C     -0.084800   -3.628500   -1.241200
O      0.476100   -4.066300   -0.258500
H      1.213600    1.692000    0.030100
H     -0.316000    1.857600   -0.841400
H     -0.305700    1.822000    0.925100
H      0.520700   -0.530600   -0.885000
H      0.522500   -0.568500    0.865900
H     -1.959000   -0.189500    0.883000
H     -1.972600   -0.145800   -0.869700
H     -1.063100   -2.553900    0.791400
H     -3.526200   -2.108500    1.061500
H     -3.718500   -2.107900   -0.696400
H     -3.225200   -3.592900    0.138100
H     -1.476500   -2.435200   -2.126400
H      0.167500   -3.951400   -2.271800
