18
gdb_10735
C     -0.075700    1.457200   -0.185000
C      0.011400   -0.068500    0.056500
C      0.738300   -0.359700    1.390100
C     -1.341400   -0.630300    0.102200
C     -2.455200   -1.076700    0.176100
C      0.830900   -0.684500   -1.081800
C      0.539800   -1.976100   -1.711100
O      0.236200   -0.740800   -2.371600
H      0.928600    1.893800   -0.202900
H     -0.562100    1.662600   -1.141200
H     -0.648800    1.941000    0.610200
H      0.200500    0.096300    2.225100
H      0.806400   -1.435500    1.572700
H      1.752000    0.054100    1.367300
H     -3.441100   -1.468000    0.228700
H      1.867100   -0.337200   -1.084500
H      1.350600   -2.553400   -2.153200
H     -0.326500   -2.544900   -1.382100
