17
gdb_19366
C     -0.254900    1.324100   -0.055200
O      0.164600   -0.024600    0.089500
C      0.741000   -0.535000   -1.050000
C     -0.033500   -1.001400   -2.252600
C      0.828400   -1.980900   -1.470400
C      2.347000   -1.781500   -1.755900
N      2.521600   -0.707800   -2.772000
C      2.273000   -0.367200   -1.348400
H      0.589600    1.989400   -0.284200
H     -1.003700    1.425700   -0.852100
H     -0.695600    1.624600    0.897900
H     -1.093900   -1.122400   -2.051500
H      0.228300   -0.706400   -3.260500
H      0.419500   -2.857300   -0.986200
H      3.120300   -2.518000   -1.581200
H      3.524000   -0.610000   -2.934000
H      2.959800    0.233500   -0.766200
