20
gdb_12867
C     -0.095900    1.558300    0.012000
C      0.049200    0.054800    0.066000
C      1.344300   -0.700600   -0.237700
C      2.622000    0.055800   -0.131400
C      2.833500    0.503100    1.109500
C      1.731600    0.077700    2.055200
C      0.747900   -0.705300    1.170000
C      0.086900   -1.925700    1.767500
H      0.834200    2.070500    0.269100
H     -0.386300    1.884000   -0.993100
H     -0.872400    1.899800    0.706500
H     -0.830200   -0.469300   -0.305300
H      1.284500   -1.567700   -0.888600
H      3.273400    0.232300   -0.980400
H      3.669400    1.117800    1.424800
H      2.118700   -0.556400    2.865400
H      1.257400    0.938200    2.547100
H     -0.578100   -1.654200    2.596800
H     -0.516300   -2.456300    1.023700
H      0.830500   -2.630300    2.158400
