17
gdb_17250
O      0.165400    1.313100   -0.263700
C     -0.017800   -0.030600    0.164500
C     -1.449900   -0.463600    0.120900
C     -2.615000   -0.072600    1.016700
N     -3.388400   -1.269700    0.496500
C     -3.613300   -0.868100   -0.950500
C     -2.117200   -0.983600   -1.183200
C     -2.027600   -1.847400    0.039700
H     -0.221400    1.388000   -1.142500
H      0.600100   -0.730100   -0.423200
H      0.356600   -0.060400    1.193900
H     -2.389200   -0.220000    2.076700
H     -3.116100    0.891600    0.877100
H     -4.181000   -1.651900   -1.458900
H     -4.116200    0.096700   -1.082600
H     -1.555400   -1.072800   -2.106000
H     -1.655500   -2.840900    0.246400
