17
gdb_9874
C      0.458500    1.481600   -0.265400
C     -0.176200    0.139100    0.019800
C      0.507300   -1.140900   -0.395300
C      0.407600   -0.756700    1.067900
O     -1.593200    0.144100    0.037000
C     -2.231600    0.390600   -1.191600
C     -2.177500   -0.742700   -2.138400
N     -2.156100   -1.624100   -2.885100
H      1.542000    1.419100   -0.135000
H      0.278500    1.821500   -1.291300
H      0.073200    2.241500    0.422400
H     -0.116000   -1.957300   -0.736500
H      1.469300   -1.067600   -0.890900
H      1.299100   -0.422700    1.586800
H     -0.296100   -1.312100    1.676700
H     -3.282900    0.585900   -0.958200
H     -1.837800    1.279800   -1.701600
