14
gdb_15758
O     -0.358900    0.017100    0.095000
C     -0.108800    1.130700   -0.268300
N      1.134800    1.762000   -0.216900
C      2.342600    1.244300    0.262300
O      2.474900    0.126000    0.699500
C      3.486400    2.213800    0.186400
C      4.349600    2.303000    1.406700
N      4.833300    1.633600    0.207000
H     -0.862400    1.817600   -0.704700
H      1.155400    2.710000   -0.564300
H      3.366800    3.088300   -0.448400
H      4.827300    3.250000    1.639900
H      4.053300    1.696600    2.257600
H      4.717800    0.626300    0.327100
