20
gdb_19752
C     -0.135600    1.563500   -0.017200
C      0.030100    0.044400    0.000700
C      0.916700   -0.528700   -1.105800
C      2.327900   -0.628200   -0.552700
C      2.285300   -0.125100    0.886700
C      0.831200   -0.560000    1.189900
C      0.873600   -2.057000    0.796300
C      1.442200   -1.860800   -0.607500
H      0.827000    2.082700   -0.033800
H     -0.690300    1.880000   -0.907400
H     -0.693300    1.911200    0.859500
H     -0.967000   -0.414800   -0.031800
H      0.727000   -0.344100   -2.155700
H      3.198500   -0.524200   -1.186900
H      3.009100   -0.631800    1.534400
H      2.446300    0.952900    0.977700
H      0.453300   -0.331600    2.186700
H      1.529100   -2.647300    1.445900
H     -0.119500   -2.519100    0.795000
H      1.648800   -2.684200   -1.278600
