18
gdb_12827
O     -0.059200    1.389500    0.093300
C      0.014100   -0.008400   -0.015900
C     -0.489900   -0.623700   -1.294800
C     -1.316300   -0.702900   -0.019300
C     -1.456400   -2.029800    0.725500
O     -0.407400   -2.293400    1.643100
C      0.869700   -2.127500    1.061800
C      1.145200   -0.647700    0.768100
H      0.698400    1.760400   -0.373200
H     -0.826700    0.061100   -2.064700
H     -0.032800   -1.538300   -1.662700
H     -2.177700   -0.045600    0.022400
H     -2.372500   -2.029000    1.322100
H     -1.530300   -2.860100    0.002700
H      1.594300   -2.513600    1.784200
H      0.959800   -2.736000    0.145200
H      2.103800   -0.539100    0.242700
H      1.225700   -0.111600    1.719900
