18
gdb_13507
C      0.090200    1.536900    0.001700
C      0.090000    0.016400    0.007100
O     -1.235000   -0.433200    0.254700
C      0.565400   -0.543600   -1.336200
O      1.975200   -0.305700   -1.581400
C      2.285800   -1.710200   -1.478900
C      0.786700   -2.072000   -1.395400
O      0.332100   -2.755200   -0.242100
H      1.088000    1.911400   -0.242500
H     -0.620800    1.912700   -0.741500
H     -0.204600    1.920900    0.981900
H      0.775600   -0.342700    0.789600
H     -1.175000   -1.392600    0.344600
H     -0.056700   -0.134400   -2.141800
H      2.838900   -2.074700   -2.352400
H      2.840800   -1.951800   -0.563100
H      0.393300   -2.535600   -2.306300
H      0.375400   -3.702800   -0.398800
