12
gdb_4515
N      0.051800    1.434500    0.116500
C     -0.056900    0.066300    0.014200
C     -1.089600   -0.798000   -0.135300
O     -2.398600   -0.505400   -0.230700
N     -0.650200   -2.113800   -0.185800
C      0.637000   -1.992200   -0.064300
O      1.541800   -2.969200   -0.050900
O      1.112300   -0.765300    0.060700
H      0.557700    1.876400   -0.642700
H      0.413100    1.764800    1.004200
H     -2.861500   -1.345800   -0.328300
H      1.056800   -3.798600   -0.149700
