20
gdb_13988
O     -0.101600    1.479400   -0.076000
C     -0.012500    0.065300   -0.169700
C     -1.382100   -0.514100    0.176200
C     -1.403800   -2.016900    0.139100
C     -1.579500   -2.804000   -1.134700
C     -2.579400   -2.987700   -0.024800
C     -2.000300   -3.914800    1.048700
C     -0.792400   -2.935000    1.213900
H      0.759200    1.849900   -0.291100
H      0.275700   -0.253400   -1.184100
H      0.745700   -0.332900    0.524300
H     -1.667100   -0.151600    1.172200
H     -2.117900   -0.108200   -0.528500
H     -1.932900   -2.230000   -1.986200
H     -0.894000   -3.608800   -1.395100
H     -3.630400   -2.763200   -0.167200
H     -2.613300   -3.968500    1.951200
H     -1.769300   -4.935600    0.725600
H      0.204700   -3.334900    1.000000
H     -0.772700   -2.469700    2.203200
