15
gdb_10028
C     -0.058500    1.444500    0.151100
O      0.299400    0.094100   -0.099600
C      0.702900   -0.605100    1.058400
C     -0.436400   -0.790900    1.999900
N     -1.325400   -0.896100    2.729800
C      1.271500   -1.895200    0.682100
C      1.754900   -2.957500    0.394300
C      2.329600   -4.244100    0.035700
H      0.777400    2.003300    0.597500
H     -0.305900    1.881800   -0.817300
H     -0.930200    1.518700    0.814600
H      1.462300   -0.018000    1.605600
H      3.401300   -4.276600    0.257800
H      1.845200   -5.056900    0.586800
H      2.201700   -4.442000   -1.033700
