13
gdb_716
C     -0.016500    1.500500    0.141900
C      1.492000    1.379800    0.031400
C      1.918000    0.093100    0.663100
C      0.687000   -0.624100    1.185000
C      0.009700   -0.026600   -0.063700
N      1.411700    0.098300   -0.754700
H     -0.466800    1.899200    1.057500
H     -0.430300    2.012600   -0.730500
H      2.207500    2.150900   -0.231700
H      2.958800   -0.118000    0.882300
H      0.801300   -1.707400    1.095900
H      0.284800   -0.370900    2.172000
H     -0.796700   -0.545900   -0.577500
