13
gdb_20344
C     -0.053200    1.458700    0.010600
C      1.402600    1.883900   -0.001200
C      2.214100    0.810900   -0.014900
C      1.393100   -0.390500   -0.013600
C      1.300800   -1.766100   -0.020100
N     -0.023700   -2.101400   -0.010000
N     -0.760900   -1.016500    0.003900
N      0.095100    0.012100    0.001100
H     -0.590000    1.795900    0.904300
H     -0.607100    1.805700   -0.868900
H      1.701100    2.923000    0.001700
H      3.294300    0.819000   -0.025200
H      2.070500   -2.519400   -0.031500
