14
gdb_9137
N     -0.086300    1.464200    0.042400
C      0.045400    0.002500    0.026200
C      0.734100   -0.514800   -1.186600
N      1.255500   -0.865500   -2.156700
C      0.730300   -0.472900    1.230200
C      1.293800   -0.858200    2.220600
C      1.997100   -1.373400    3.398200
O      1.928800   -2.784400    3.517300
H      0.837700    1.886600    0.050000
H     -0.546800    1.770200   -0.810400
H     -0.971100   -0.413500    0.010700
H      3.038600   -1.015600    3.381400
H      1.538800   -0.972100    4.308400
H      2.279600   -3.164700    2.704900
