9
gdb_331
N     -0.044000    1.486900    0.064600
C     -0.017000    0.029700   -0.027200
C     -1.380400   -0.510700    0.121400
N     -2.448500   -0.930700    0.240200
C      0.602500   -0.499700   -1.267400
N      1.127100   -0.844900   -2.236900
H      0.905200    1.845700    0.028000
H     -0.548800    1.878900   -0.725000
H      0.573800   -0.348700    0.816900
