22
gdb_10955
C     -0.003200    1.548700    0.064700
C     -0.155000    0.028900   -0.058800
C      0.680800   -0.562700   -1.190900
C      2.247000   -0.576300   -1.073100
C      2.243500   -2.092400   -1.334800
C      3.243900   -2.809600   -2.194600
C      1.442700   -2.768400   -0.257500
C      0.710800   -2.085800   -1.385900
H      1.037800    1.829400    0.259100
H     -0.313100    2.053700   -0.857300
H     -0.612200    1.946700    0.882400
H      0.120200   -0.444500    0.892000
H     -1.210500   -0.222500   -0.228300
H      0.397800   -0.075300   -2.131000
H      2.735100   -0.000200   -1.863500
H      2.667200   -0.264700   -0.109500
H      4.225400   -2.861000   -1.706500
H      2.925900   -3.837300   -2.400500
H      3.381700   -2.303100   -3.157300
H      1.432600   -3.853600   -0.301200
H      1.415800   -2.371400    0.755000
H      0.050200   -2.643000   -2.041800
