15
gdb_1921
C      0.034800    1.538500    0.067800
C      0.009700    0.039400   -0.025300
C      0.651600   -0.799900   -1.181900
C      0.646400   -1.802800    0.006800
O      0.925600   -0.668700    0.888500
C     -0.865800   -2.008600    0.230500
C     -1.302500   -0.749600    0.208300
H      1.043100    1.922200   -0.108800
H     -0.639900    1.977800   -0.674000
H     -0.288900    1.865600    1.061000
H      0.051900   -1.025100   -2.066500
H      1.656000   -0.452800   -1.439000
H      1.337500   -2.638300    0.106600
H     -1.391600   -2.943600    0.356100
H     -2.295000   -0.335700    0.314400
