15
gdb_21145
C      0.035200    1.388200    0.008000
N      0.027400   -0.067800    0.002800
C     -1.090400   -0.650900    0.009200
O     -2.347900   -0.102100    0.020700
N     -3.327600   -1.143000    0.024100
C     -2.632500   -2.229100    0.014400
N     -1.286700   -2.028000    0.006000
C     -0.208100   -2.991400   -0.007000
H      1.070800    1.736400   -0.001100
H     -0.474200    1.809800   -0.869300
H     -0.456200    1.803200    0.898600
H     -3.084600   -3.210200    0.014100
H     -0.628800   -3.998300   -0.001500
H      0.408100   -2.856200   -0.900300
H      0.429300   -2.855200    0.871000
