17
gdb_13094
C     -0.197900    1.442600    0.308400
C      0.126000   -0.025100    0.120800
O      1.158100   -0.254400   -0.872800
C      2.053800   -0.827900    0.098500
C      0.998200   -0.716600    1.207000
O      1.410800    0.087400    2.294600
C      0.877900   -0.165900    3.509100
N      1.128500    0.599600    4.478500
H      0.683000    2.002600    0.629100
H     -0.559100    1.859400   -0.636400
H     -0.981500    1.571200    1.062600
H     -0.778800   -0.592500   -0.135400
H      2.369600   -1.842000   -0.171700
H      2.936900   -0.203800    0.278900
H      0.599400   -1.669600    1.568700
H      0.256100   -1.072100    3.530700
H      0.673500    0.254900    5.321100
