17
gdb_17216
C     -0.374600    1.385000    0.170800
O      0.970200    0.939000   -0.055700
C     -0.047200   -0.036400    0.040300
C     -0.051200   -1.184200    1.055700
N     -0.464000   -2.147500   -0.015200
C     -1.951800   -2.202800   -0.210700
C     -1.881400   -1.223000   -1.412600
C     -0.389700   -1.042200   -1.061800
H     -0.567300    1.807400    1.156400
H     -0.836200    1.916300   -0.661000
H      0.947000   -1.414900    1.441900
H     -0.749100   -1.108300    1.897100
H     -2.300200   -3.212400   -0.445400
H     -2.520200   -1.836200    0.652500
H     -2.041900   -1.703400   -2.379700
H     -2.503000   -0.326200   -1.359100
H      0.353500   -1.135100   -1.858500
