22
gdb_10987
C     -0.168400    1.536800   -0.029000
C      0.005100    0.023300   -0.001600
C      1.137200   -0.592900   -0.883500
C      2.114300   -0.277300    0.283200
C      0.863700   -0.598300    1.161500
C      0.739600   -0.145500    2.598200
C      0.686000   -2.105700    0.869100
C      0.894600   -2.100800   -0.682900
H      0.772800    2.080900    0.089200
H     -0.612100    1.853700   -0.979400
H     -0.841300    1.866500    0.770600
H     -0.978500   -0.446800   -0.133800
H      1.322100   -0.243300   -1.900800
H      2.993900   -0.919300    0.399200
H      2.420300    0.768400    0.332600
H      0.860800    0.938800    2.693000
H     -0.240400   -0.409300    3.014100
H      1.501400   -0.620200    3.227800
H      1.428800   -2.714700    1.394600
H     -0.305700   -2.464800    1.162800
H      0.015300   -2.457300   -1.228000
H      1.750400   -2.706900   -0.994700
