17
gdb_16876
O      0.012900    0.687400   -1.366500
C     -0.037600    1.289800   -0.322000
C     -1.359700    1.854000    0.215500
N     -1.167700    2.424700    1.542900
C     -0.196600    3.485600    1.548500
C      0.962200    3.359300    2.505200
C      1.148200    3.015100    1.046400
C      1.180500    1.571600    0.554500
H     -1.741300    2.562400   -0.542400
H     -2.078100    1.028800    0.265200
H     -2.041600    2.691400    1.977200
H     -0.524400    4.488200    1.266100
H      1.426000    4.268200    2.872800
H      0.918500    2.542100    3.216600
H      1.717600    3.717400    0.447200
H      1.137900    0.878200    1.402900
H      2.082100    1.342500   -0.017200
