12
gdb_6642
N     -0.111200    1.358000    0.150300
C      0.093700    0.042600   -0.139400
O      1.171400   -0.422800   -0.424400
C     -1.208200   -0.795100   -0.118800
C     -0.963900   -2.220900   -0.043900
C     -0.782300   -3.411800    0.023300
C     -0.579500   -4.759600    0.102100
N     -0.414500   -5.907400    0.170900
H      0.688100    1.970500    0.156700
H     -0.996200    1.718100    0.460800
H     -1.848600   -0.483200    0.715800
H     -1.764500   -0.563400   -1.037300
