18
gdb_12000
C     -0.148600    1.586000    0.008100
C      0.022900    0.062800   -0.007000
O     -1.272300   -0.560700    0.033100
C      0.843200   -0.446700   -1.184200
C      1.809500   -1.285400   -0.803400
C      1.872300   -1.417700    0.679700
C      2.219100   -0.131800    1.411400
C      0.778400   -0.506100    1.196900
H      0.814500    2.102100    0.046800
H     -0.670100    1.922300   -0.896500
H     -0.745200    1.885700    0.874300
H     -1.742200   -0.311300   -0.769900
H      0.642700   -0.129300   -2.202800
H      2.506500   -1.784800   -1.467800
H      2.111200   -2.369500    1.140200
H      2.599200   -0.215800    2.424800
H      2.656900    0.673500    0.830700
H      0.173200   -0.779200    2.052500
