12
gdb_3771
C      0.056900    1.409700   -0.001700
N      0.005400   -0.031800    0.028200
N     -0.141300   -0.780200   -1.096500
N     -0.153800   -2.005300   -0.775500
N     -0.013600   -2.076500    0.582500
C      0.095100   -0.821900    1.163100
N      0.237100   -0.380000    2.352700
H      1.006900    1.762200    0.409900
H     -0.041800    1.724400   -1.040400
H     -0.756100    1.828900    0.597700
H      0.000100   -2.973500    1.034300
H      0.280400   -1.132300    3.034300
