17
gdb_18888
C     -0.015400    1.458400    0.075000
C     -0.044300   -0.046200    0.008500
C     -1.249800   -0.812200   -0.508900
C     -0.702200   -2.213700   -0.385800
C      0.236900   -2.318500    0.760700
C      0.684700   -0.880900    1.061300
C      1.194200   -0.827300   -0.355500
N      0.775600   -2.254500   -0.638300
H      0.948200    1.819700    0.448500
H     -0.174700    1.901100   -0.914600
H     -0.794000    1.843100    0.743100
H     -2.144800   -0.665400    0.106500
H     -1.491500   -0.547600   -1.544700
H     -1.244400   -3.080100   -0.747600
H      0.380500   -3.191000    1.387400
H      1.097400   -0.488100    1.979900
H      2.097300   -0.426000   -0.796700
