21
gdb_8441
C     -0.114600    1.543300    0.091800
C      0.102000    0.061600    0.033100
N     -0.792400   -0.871700    0.764400
C      0.673300   -0.899500    1.016500
C      1.262600   -1.776000   -0.087200
C      0.693200   -0.756900   -1.153000
C     -0.320200   -1.313300   -2.148900
C      1.821700   -0.005600   -1.859000
H      0.757400    2.093100   -0.276300
H     -0.977600    1.843900   -0.514900
H     -0.303200    1.869300    1.121000
H     -1.216300   -0.336700    1.523100
H      1.060700   -0.728200    2.014400
H      2.354800   -1.812300   -0.090000
H      0.861400   -2.792100   -0.128000
H     -1.140900   -1.806600   -1.623600
H     -0.739700   -0.515000   -2.773300
H      0.151000   -2.041100   -2.819700
H      2.374400   -0.680100   -2.522300
H      1.433900    0.816800   -2.471100
H      2.535700    0.415600   -1.142400
