17
gdb_7756
C     -0.302200    1.543800    0.002400
C      0.066000    0.048900    0.024600
N      0.784800   -0.319400   -1.187800
C      2.007600   -0.911300   -1.325600
O      2.476400   -1.163100   -2.420700
C      2.760200   -1.237400   -0.042700
C      2.051800   -0.874900    1.227000
C      0.851600   -0.306400    1.252600
H      0.601200    2.160100   -0.006100
H     -0.895100    1.783300   -0.886600
H     -0.897600    1.805200    0.882800
H     -0.879800   -0.518400    0.054100
H      0.335000   -0.123700   -2.071500
H      2.995700   -2.309200   -0.072400
H      3.734200   -0.735400   -0.109200
H      2.563200   -1.102600    2.158900
H      0.370800   -0.063000    2.195500
