20
gdb_18728
O     -0.063000    1.436800   -0.009200
C     -0.008000    0.011900    0.026200
C      0.817800   -0.504200    1.212300
C      0.697100   -2.026800    1.335200
C     -0.741200   -2.445900    1.682300
C     -1.800000   -1.726700    0.843200
C     -2.297100   -0.362300    1.255200
C     -1.431900   -0.497800    0.030700
H      0.841600    1.762100   -0.068200
H      0.471400   -0.361200   -0.895900
H      1.865500   -0.209900    1.070500
H      0.477300   -0.014100    2.133000
H      0.992100   -2.484100    0.381100
H      1.391200   -2.409700    2.091200
H     -0.846000   -3.527500    1.547200
H     -0.923400   -2.255000    2.747600
H     -2.541000   -2.377900    0.390000
H     -3.345000   -0.121800    1.113300
H     -1.859300    0.084800    2.141900
H     -1.937400   -0.375000   -0.922400
