19
gdb_20071
C     -0.212900    1.072300   -0.366200
C      1.204800    0.648700   -0.196100
N      0.111100   -0.239300    0.182400
C     -0.114800   -0.421000    1.616100
C     -1.539100   -0.949700    1.861500
C     -1.329500   -2.462100    1.764700
O     -0.082100   -2.690800    2.407400
C      0.768300   -1.576800    2.151000
H     -0.587600    1.834100    0.316200
H     -0.675100    1.075900   -1.349100
H      1.797400    0.337700   -1.051500
H      1.771500    1.130400    0.599900
H      0.075500    0.513300    2.170000
H     -1.872500   -0.680600    2.868500
H     -2.255100   -0.556300    1.136400
H     -2.088100   -3.052500    2.286200
H     -1.296000   -2.779600    0.711500
H      1.532400   -1.834200    1.405400
H      1.271500   -1.314100    3.088400
