18
gdb_14243
C      0.289600    1.578300   -0.094100
C      0.091000    0.073900    0.018100
C      0.928400   -0.868100   -0.899700
C      1.255100   -1.785200    0.329300
C      0.600100   -0.697400    1.268600
C      2.010300   -0.323700    1.814300
C      2.611800   -1.449900    0.946100
O      3.710200   -1.915100    0.844200
H      1.345500    1.858300   -0.019500
H     -0.075500    1.946000   -1.059500
H     -0.255600    2.112000    0.692400
H     -0.972400   -0.154200   -0.112600
H      0.369700   -1.365600   -1.694400
H      1.810600   -0.402400   -1.349000
H      0.955200   -2.831100    0.262600
H     -0.135000   -0.949400    2.032700
H      2.387000    0.684100    1.619100
H      2.138900   -0.527600    2.882300
