15
gdb_11500
N     -0.123900    1.363800    0.331600
C      0.073300    0.052000   -0.083900
N      1.166700   -0.558300   -0.324200
C      2.410800    0.108300   -0.205000
C      3.619200   -0.773400    0.040500
C      3.426200   -0.145400   -1.306400
C     -1.154900   -0.710800   -0.199500
N     -2.155900   -1.282600   -0.287700
H      0.584000    2.028600    0.059900
H     -1.063500    1.718100    0.238200
H      2.443200    1.090500    0.265900
H      4.394900   -0.387000    0.691600
H      3.418200   -1.833300    0.137100
H      3.097600   -0.781500   -2.119100
H      4.063800    0.681900   -1.597000
