15
gdb_3584
C      0.099300    1.549300    0.081800
C      1.275100    0.646700   -0.019600
C      2.006800    0.294800    1.254500
N      1.437500    0.905900    2.477000
C      1.067300   -0.475500    2.111600
C     -0.253100   -0.583700    1.356500
N     -0.098100    0.092700    0.045500
H     -0.031400    2.070600    1.024400
H     -0.264000    2.069100   -0.801100
H      1.813800    0.519600   -0.954400
H      3.068800    0.080000    1.214000
H      2.133800    0.887100    3.218600
H      1.394100   -1.295400    2.744900
H     -0.477300   -1.638800    1.163500
H     -1.092300   -0.155600    1.913900
