18
gdb_7533
C      0.044600    1.439000   -0.268400
C      0.040600   -0.040300    0.042800
C      1.331000   -0.840600    0.001800
C      0.646300   -0.566500    1.319100
O      1.215400    0.393800    2.175300
C     -0.053800   -1.698200    2.062800
C      0.919800   -2.579600    2.813500
O      0.974900   -3.779100    2.722400
H      0.908100    1.929400    0.186100
H      0.075800    1.609700   -1.349600
H     -0.855400    1.925600    0.122600
H     -0.845000   -0.572300   -0.295800
H      1.317500   -1.850100   -0.395300
H      2.242900   -0.287100   -0.200900
H      2.128600    0.145300    2.349100
H     -0.739300   -1.248200    2.794600
H     -0.633500   -2.326300    1.381400
H      1.618500   -2.027100    3.484300
