16
gdb_16986
C      0.008600    1.606700   -0.255100
O      1.438600    1.486000    0.140000
C      1.045100    0.300500    0.882800
C      1.192200   -1.258000    1.012800
C     -0.399600   -1.038300    1.157500
O     -0.529900   -0.387700    2.405100
C      0.495600    0.619500    2.297000
C     -0.172000    0.080000    0.050700
H     -0.513900    2.323600    0.382500
H     -0.082500    1.890000   -1.305700
H      1.487600   -1.763500    0.095200
H      1.688000   -1.681900    1.890600
H     -1.117900   -1.851800    1.065900
H      1.249600    0.487100    3.080600
H      0.055800    1.616200    2.389800
H      0.112000   -0.442800   -0.864600
