18
gdb_11918
O      0.010600    1.406700   -0.062000
C      0.010700   -0.007400    0.000500
C      0.555300   -0.591400    1.317600
O     -0.042900   -1.871400    1.412300
C     -1.375700   -1.737100    0.945100
C     -2.126500   -3.012700    0.758100
C     -2.483900   -2.077700    1.904200
C     -1.434600   -0.535600    0.001300
H      0.918300    1.703500   -0.179100
H      0.568900   -0.436700   -0.843700
H      1.640900   -0.723400    1.338300
H      0.257300    0.069400    2.148100
H     -2.809000   -3.092600   -0.081700
H     -1.603200   -3.928700    1.009500
H     -2.193200   -2.386300    2.902100
H     -3.412300   -1.518200    1.847000
H     -2.086300    0.252800    0.389700
H     -1.781300   -0.800400   -1.000300
