19
gdb_11967
C     -0.220700    1.543300    0.126600
C      0.005400    0.039100    0.052700
C     -1.229900   -0.713400   -0.428200
O      1.155100   -0.265100   -0.794400
C      1.880300   -0.896600    0.284100
C      0.743600   -0.597200    1.247800
C      0.742000   -0.207400    2.670000
N      0.235100   -1.530600    2.240400
H      0.683400    2.053900    0.467900
H     -0.483000    1.932600   -0.862600
H     -1.038700    1.786000    0.813900
H     -1.509300   -0.368300   -1.428600
H     -1.038000   -1.788500   -0.477500
H     -2.083800   -0.539700    0.236700
H      2.058100   -1.963600    0.102600
H      2.836400   -0.397500    0.485400
H      1.662000   -0.237800    3.248200
H      0.028800    0.546400    2.995500
H     -0.782700   -1.535400    2.239500
