15
gdb_3628
C     -0.012900    1.559600   -0.074700
C      1.469800    1.852600    0.059000
C      2.295600    0.716500   -0.516800
C      2.133700    0.848400    0.983700
C      1.170700   -0.366300    0.986200
C      0.039300    0.049600    0.063600
C      1.331900   -0.497600   -0.514400
H     -0.604600    2.031000    0.718500
H     -0.415100    1.876300   -1.043900
H      1.859800    2.862600    0.012200
H      3.174700    0.846500   -1.132600
H      2.864700    1.099000    1.739800
H      1.095000   -1.133400    1.744300
H     -0.855700   -0.560100    0.020900
H      1.403400   -1.384700   -1.128300
