13
gdb_19215
N     -0.164400    1.249700   -0.001200
C     -0.033700    0.006800    0.010800
C      1.117100   -1.039800    0.081600
C      2.023800   -1.021600    1.216800
N      2.724400   -0.984800    2.135700
C     -0.017700   -2.071800    0.040100
C     -1.025400   -1.815300    1.077000
N     -1.070400   -0.984100   -0.164200
H      0.728000    1.727600    0.128400
H      1.686100   -1.022000   -0.853000
H     -0.006400   -2.956400   -0.583600
H     -1.865800   -2.497400    1.142000
H     -0.743100   -1.340300    2.012400
