16
gdb_14719
O     -0.028500    1.444300    0.010200
C      0.036600    0.028500    0.001800
C     -1.392100   -0.499600    0.012700
C     -1.435900   -2.041100    0.004800
C     -2.789700   -2.572500    0.014900
C     -3.922100   -2.999400    0.023800
C     -5.195900   -3.478500    0.033400
C     -6.325800   -3.905100    0.041400
H      0.869100    1.789100    0.003000
H      0.564700   -0.343500   -0.892300
H      0.581800   -0.353300    0.881400
H     -1.908300   -0.119000    0.899600
H     -1.925200   -0.109500   -0.859800
H     -0.906600   -2.420900   -0.880000
H     -0.889700   -2.430400    0.875000
H     -7.319600   -4.277900    0.048700
