12
gdb_428
O      0.575100    1.015100    0.631900
C      0.022600   -0.141000    0.085100
C     -1.520100   -0.280400   -0.185000
C     -1.206700   -1.012200   -1.527900
C      0.190500   -0.385900   -1.417900
O      0.972900    0.069600   -2.204500
H      0.913900    1.544800   -0.100500
H      0.361500   -1.013800    0.660100
H     -2.092100   -0.829500    0.562700
H     -1.972000    0.699300   -0.353700
H     -1.183200   -2.100700   -1.422000
H     -1.782100   -0.749700   -2.416800
