16
gdb_16844
O      0.102100    1.390000   -0.062600
C      0.037400   -0.022400   -0.080900
C      0.810400   -0.720200    1.067100
C      0.063000   -2.045100    1.364200
O      0.151100   -2.484400    2.705400
C     -1.358300   -1.765300    0.900900
O     -1.853000   -0.510100    1.408300
C     -1.373300   -0.575100    0.050600
H     -0.335500    1.680000    0.746700
H      0.441500   -0.317100   -1.056400
H      1.864300   -0.875300    0.831300
H      0.765200   -0.084800    1.957300
H      0.473700   -2.865700    0.764300
H     -0.291200   -1.820200    3.247300
H     -2.093500   -2.562600    0.835500
H     -2.121000   -0.390900   -0.716000
