14
gdb_20339
C     -0.055600    1.536400    0.010800
C      1.426000    1.890400   -0.001500
C      2.202400    0.786100   -0.014900
C      1.311500   -0.362600   -0.012500
C     -0.014300    0.034800    0.002400
C     -0.747200   -1.163200    0.003100
N      0.064100   -2.227300   -0.010500
N      1.321700   -1.712700   -0.019800
H     -0.553200    1.955500    0.895400
H     -0.570100    1.964900   -0.859500
H      1.784100    2.912000    0.000600
H      3.283700    0.759700   -0.025400
H     -1.815400   -1.323600    0.012500
H      2.100800   -2.347700   -0.030700
