9
gdb_3647
C      0.001800   -1.181300   -0.003600
C     -0.014600    0.020500    0.003100
C      0.011900    1.433100    0.010400
N     -1.071400    2.181000    0.028100
O     -0.630400    3.465700    0.029500
N      0.736500    3.536400    0.012700
C      1.146900    2.302100    0.000800
H      0.003900   -2.243800   -0.009400
H      2.196000    2.053700   -0.013800
