11
gdb_3864
N     -0.010400    1.367300    0.163100
C     -0.020100    0.000600    0.056600
C     -1.215600   -0.750500    0.036100
N     -1.181200   -2.064600   -0.012100
C      0.048800   -2.606200   -0.033700
N      1.197300   -1.943300   -0.024000
N      1.166800   -0.614900    0.014700
H      0.880100    1.798400   -0.037900
H     -0.816600    1.872000   -0.167800
H     -2.189200   -0.262600    0.058300
H      0.119600   -3.688000   -0.067100
