11
gdb_139
C      0.002600   -1.191000   -0.014500
C      0.007000    0.012000    0.005600
C      0.009900    1.445200    0.028300
C      0.492700    2.189100    1.263800
C      1.326200    2.207100    0.017500
H     -0.001900   -2.252200   -0.033700
H     -0.809100    1.910200   -0.512700
H     -0.046700    3.087300    1.542000
H      0.834000    1.587200    2.097400
H      2.234800    1.617400    0.002700
H      1.365100    3.117800   -0.569200
