18
gdb_13463
C     -0.243300    1.391500   -0.401900
O     -0.261700   -0.013700   -0.440200
C     -1.039900   -0.574000    0.598800
C     -0.995700   -2.072100    0.445200
C     -1.891600   -2.978200    1.251100
O     -2.834400   -2.336700    2.080000
C     -2.127600   -2.828400   -0.233800
O     -3.280400   -2.150100   -0.625000
H      0.379600    1.734200   -1.231900
H     -1.252700    1.818400   -0.515900
H      0.182200    1.771400    0.541600
H     -0.637800   -0.272600    1.581100
H     -2.074900   -0.207400    0.544100
H      0.006900   -2.452600    0.271000
H     -1.474200   -3.895000    1.662300
H     -3.497200   -2.990200    2.329800
H     -1.883200   -3.641400   -0.910300
H     -3.721800   -1.878100    0.191800
