10
gdb_21751
O     -0.059500    1.338100    0.009900
C      1.252600    1.724200   -0.000700
N      2.131800    0.777900   -0.014100
N      1.332600   -0.347900   -0.012600
C      1.338400   -1.718800   -0.020000
N      0.091300   -2.134800   -0.010400
N     -0.780600   -1.041900    0.004000
C      0.018000   -0.019600    0.001800
H      1.456100    2.782500    0.003100
H      2.222800   -2.332000   -0.031700
