17
gdb_8858
C      0.058400    1.574300   -0.014800
C      0.036300    0.045600   -0.100200
C     -1.370700   -0.558300    0.023400
C     -2.306400   -0.207800   -1.154200
C     -1.295700   -2.066900    0.175200
O     -0.303700   -2.739400    0.054100
C     -2.586200   -2.725200    0.504100
N     -3.591000   -3.230400    0.773400
H      1.087600    1.943200   -0.049400
H     -0.483900    2.043700   -0.841200
H     -0.388300    1.927800    0.921300
H      0.483000   -0.287200   -1.044000
H      0.666300   -0.375100    0.690200
H     -1.849700   -0.190100    0.944100
H     -3.286100   -0.681100   -1.045200
H     -2.462800    0.871800   -1.201400
H     -1.869900   -0.533100   -2.103900
