13
gdb_15459
O     -0.006300   -0.042900    0.003500
C      0.005600    1.165700    0.009900
N     -1.085000    2.004000    0.027900
C     -0.744100    3.405300    0.031100
C      0.758100    3.366100    0.012000
C      1.200000    2.098100   -0.000400
C      2.528800    1.624100   -0.019600
C      3.654500    1.198400   -0.036100
H     -2.023600    1.643800    0.037800
H     -1.143300    3.937300   -0.845600
H     -1.121100    3.927900    0.923000
H      1.364800    4.261200    0.009000
H      4.645200    0.816500   -0.050700
