12
gdb_5463
N      0.044100    1.414100    0.170600
C      0.030500    0.041900    0.050300
C     -1.072900   -0.786800    0.014200
O     -0.670400   -2.105900   -0.031000
C      0.673300   -2.093800   -0.031600
C      1.167900   -0.827200    0.016800
C     -2.440000   -0.479100    0.011500
N     -3.556400   -0.158400    0.005000
H      0.843000    1.877800   -0.234300
H     -0.825200    1.877100   -0.053700
H      1.149600   -3.060400   -0.067700
H      2.206900   -0.538100    0.036100
