16
gdb_9048
C      1.002700    1.241200   -0.654300
C      0.166900    0.034100   -0.178100
N      0.366500   -1.228300   -0.889700
C     -0.324400   -1.385700   -2.167800
C      0.194100   -0.624700   -3.314200
C      0.641900   -0.030400   -4.259200
C      0.415000   -0.201000    1.258900
N      0.633600   -0.362700    2.381700
H      2.071000    1.023500   -0.561900
H      0.778900    1.458900   -1.699400
H      0.782000    2.124200   -0.047600
H     -0.897300    0.284300   -0.273800
H      1.355300   -1.433200   -0.983300
H     -0.303200   -2.452000   -2.423400
H     -1.381300   -1.137200   -2.011000
H      1.032800    0.499100   -5.093100
