14
gdb_7935
C     -0.025100    1.541100   -0.013900
C      0.044700    0.023200    0.026000
O      0.824800   -0.483900   -1.079700
C      1.852400   -1.247300   -0.634200
O      2.656100   -1.792900   -1.330100
N      1.790000   -1.270000    0.758200
C      0.741000   -0.524600    1.265200
N      0.365500   -0.286200    2.450700
H      0.978400    1.973800    0.025500
H     -0.517500    1.875300   -0.930100
H     -0.592100    1.892500    0.851300
H     -0.957700   -0.411000   -0.053000
H      2.474100   -1.774600    1.297700
H      0.958400   -0.739200    3.146600
