18
gdb_17288
C     -0.021700    1.549800   -0.013600
C      0.008000    0.039300    0.020900
C     -1.309000   -0.756500    0.283000
C     -0.612900   -1.541200    1.439300
C      0.708800   -0.764300    1.175100
C      1.667600   -1.363600    0.119900
O      0.879400   -2.050600   -0.861700
C      1.002200   -0.629100   -0.970900
H      0.991200    1.969700   -0.028500
H     -0.543900    1.913700   -0.907400
H     -0.538500    1.956500    0.862100
H     -2.130500   -0.116700    0.616800
H     -1.652800   -1.369100   -0.552200
H     -1.037700   -1.339000    2.425200
H     -0.549100   -2.620900    1.295200
H      1.195300   -0.246500    2.003000
H      2.692900   -1.697700    0.237200
H      1.376500   -0.240800   -1.913500
