15
gdb_19616
O      0.128200    1.442900    0.028200
C     -0.023500    0.059200   -0.051500
C     -1.387000   -0.613200   -0.173800
C     -1.747000   -0.715800   -1.617900
C     -0.630100   -0.127600   -2.441300
O     -0.683700    1.274300   -2.667600
C      0.302700   -0.709500   -1.354300
N     -0.818300   -1.737100   -1.001900
H     -0.259500    1.807900   -0.780400
H      0.521700   -0.380500    0.788300
H     -2.117200   -0.807400    0.603300
H     -2.742900   -0.985400   -1.948100
H     -0.521900   -0.674900   -3.384600
H      0.025600    1.517700   -3.272000
H      1.306800   -1.058000   -1.587600
