13
gdb_21048
C      0.115500    1.399600   -0.068900
N      0.094900   -0.039400   -0.017400
N      0.176700   -0.808000   -1.183800
C      0.127800   -2.013600   -0.728700
N      0.253600   -3.175300   -1.437300
O      0.004200   -2.123100    0.613200
C     -0.023500   -0.796500    1.101800
O     -0.132500   -0.511000    2.261600
H      1.052800    1.757200   -0.506100
H     -0.721700    1.777200   -0.664300
H      0.028100    1.760800    0.956800
H      0.118600   -3.058800   -2.431100
H     -0.243800   -3.962300   -1.046500
