17
gdb_17046
C     -0.043300    1.572800    0.013500
C      0.040200    0.052700   -0.100000
N     -1.298700   -0.540300    0.039500
C     -1.880600   -0.726700    1.439300
C     -2.806000   -1.788600    0.790100
C     -1.410800   -2.052900    0.166600
C     -0.825600   -1.856400    1.593100
O      0.074000   -2.204700    2.290700
H      0.936600    2.023800   -0.168300
H     -0.754400    1.976400   -0.712700
H     -0.368900    1.878000    1.013500
H      0.397900   -0.227700   -1.097700
H      0.769000   -0.341200    0.625900
H     -2.142800    0.113600    2.079000
H     -3.227800   -2.558100    1.437800
H     -3.521000   -1.364600    0.084200
H     -1.132600   -2.722400   -0.645700
