14
gdb_21308
C      0.306000    1.416000   -0.032900
O      0.532700    0.022900   -0.060200
C      0.158700   -0.611100    1.134600
C      0.440300   -2.067500    0.990000
C      0.954400   -2.808100   -0.028700
N      0.982800   -4.110600    0.411600
N      0.540100   -4.208900    1.577600
O      0.163800   -2.870500    2.009700
H      0.884500    1.905000    0.765500
H      0.626100    1.812300   -0.998300
H     -0.759000    1.650300    0.115900
H      0.716900   -0.210700    1.998500
H     -0.912400   -0.461900    1.355000
H      1.292300   -2.513700   -1.005300
