13
gdb_19332
N      0.084200   -1.148500   -0.039300
C      0.050100    0.009500   -0.025700
C     -0.008800    1.426600    0.021700
C      0.242600    2.334100   -1.168900
C      1.159900    2.434700    0.007000
C      0.488800    3.174400    1.205300
O     -0.834600    3.581900    0.824700
C     -0.621200    2.232500    1.227800
H      0.654400    1.827500   -2.034300
H     -0.469800    3.122500   -1.373600
H      2.211300    2.186500   -0.032700
H      0.984600    3.728500    1.991300
H     -1.226000    1.819300    2.024700
