13
gdb_103
C     -0.033500    1.546700   -0.133700
C     -0.049700    0.059100    0.108600
O      1.172600   -0.658900   -0.099300
C      0.626500   -0.625500    1.224900
C      1.438500    0.056500    2.296200
H      0.842600    2.024200    0.309000
H     -0.020200    1.752000   -1.209400
H     -0.934200    2.010700    0.283200
H     -0.922600   -0.447900   -0.310000
H      0.195900   -1.580400    1.536600
H      1.841200    1.013000    1.958100
H      0.825100    0.229300    3.187500
H      2.281500   -0.578000    2.589600
