18
gdb_7468
C     -0.063800    1.650900    0.154800
C      0.021400    0.135200    0.043200
C     -1.354600   -0.510700   -0.227300
C     -1.944200   -0.106500   -1.498500
C     -2.405600    0.234900   -2.555000
C      1.133700   -0.448000   -0.865200
O      1.632600   -1.276700    0.206000
C      0.789000   -0.610500    1.164500
H      0.923600    2.087100    0.334600
H     -0.470000    2.087900   -0.762500
H     -0.718000    1.947300    0.983100
H     -1.242200   -1.602300   -0.211900
H     -2.038600   -0.258400    0.594200
H     -2.825500    0.529000   -3.484900
H      0.806300   -1.036200   -1.729700
H      1.879900    0.288200   -1.193600
H      1.363600    0.048600    1.830200
H      0.213800   -1.318700    1.774300
