17
gdb_20255
C     -0.009000    1.523100    0.003900
C      1.537000    1.505000   -0.008100
C      2.046800    1.498400    1.442600
C      1.636300    0.120000    1.937100
C      1.778000   -0.890300    0.828400
C      0.395400   -0.541700    1.341900
N     -0.040800    0.022800    0.040200
C      1.414100   -0.024200   -0.388800
H     -0.497300    2.023200    0.847200
H     -0.460800    1.871200   -0.930200
H      2.065500    2.192000   -0.671300
H      3.138700    1.595900    1.489300
H      1.613300    2.321900    2.021200
H      1.883500   -0.191000    2.947000
H      2.340500   -1.813100    0.857500
H     -0.294700   -1.114500    1.951900
H      1.625900   -0.353600   -1.406100
