15
gdb_17420
C     -0.033900    1.584200    0.060100
C      0.014900    0.083200    0.075800
C     -1.259800   -0.815600    0.159900
C     -0.332900   -1.892600    0.729900
C      0.686300   -0.914300    1.118300
N      0.973500   -1.884200   -0.028900
C      0.855200   -0.723700   -0.909300
O      1.423600   -0.500900   -1.931600
H      0.972800    2.012800    0.047500
H     -0.552800    1.933000   -0.838800
H     -0.566800    1.977500    0.931400
H     -1.956700   -0.458600    0.922900
H     -1.794700   -1.016100   -0.774400
H     -0.589700   -2.841500    1.181900
H      1.381300   -0.794400    1.935900
