13
gdb_7871
C     -0.019600    1.504800    0.057400
C     -0.001900    0.021600   -0.060500
C     -0.038300   -0.747000   -1.177500
C      0.001100   -2.146300   -0.773400
O     -0.011900   -3.168900   -1.413900
C      0.067900   -2.106600    0.802100
O      0.114000   -3.019300    1.580300
N      0.059700   -0.749600    1.102700
H      0.881500    1.862600    0.569600
H     -0.071200    1.971300   -0.927100
H     -0.881500    1.835400    0.649200
H     -0.088000   -0.384400   -2.192100
H      0.093900   -0.382100    2.039600
