15
gdb_18091
C      0.023900    1.565000    0.195200
C      1.446700    1.987000   -0.086700
C      2.216600    0.982400   -0.498900
C      1.468600   -0.329100   -0.549300
N      1.994500   -1.323400    0.413700
C      1.117000   -1.403500    1.323500
O     -0.028600   -0.683600    1.239600
C      0.046700    0.038300   -0.018000
H     -0.302200    1.809600    1.212200
H     -0.685900    2.050500   -0.486400
H      1.775000    3.013700    0.032400
H      3.266900    1.048100   -0.755200
H      1.470900   -0.770800   -1.551600
H      1.187000   -2.021100    2.212500
H     -0.779200   -0.317200   -0.637800
