15
gdb_8824
C      0.163900    1.423900    0.138400
N      0.413500   -0.001100    0.001800
C      0.334200   -0.643600   -1.183300
O      0.044600   -0.123500   -2.245200
C      0.569700   -2.191500   -1.160800
N      1.094700   -2.705000   -2.422000
C      1.397200   -2.617100   -0.029600
N      2.039300   -2.888700    0.892700
H      1.069400    1.954400    0.451100
H     -0.151300    1.799100   -0.835300
H     -0.626300    1.612000    0.872100
H      0.729200   -0.517500    0.808400
H     -0.428600   -2.627500   -1.009400
H      0.597600   -2.199000   -3.154200
H      2.068600   -2.425800   -2.514000
