14
gdb_10453
O     -0.297600    0.420800    0.949900
C     -0.059700    1.165500    0.030400
C      1.223200    1.931700   -0.078800
C      1.566200    2.531000   -1.435300
C      1.677600    1.516400   -2.485100
N      1.743400    0.706300   -3.306000
C      1.649700    2.628600    1.181500
N      2.346700    1.435900    0.723800
H     -0.788900    1.325600   -0.791000
H      0.803600    3.260200   -1.734700
H      2.516500    3.066600   -1.358900
H      2.206100    3.558400    1.096300
H      0.982400    2.553200    2.035000
H      2.013200    0.628100    1.251300
