16
gdb_18491
N     -0.007800   -1.133100   -0.246800
C     -0.037600    0.004200   -0.044200
C     -0.040100    1.445500    0.201100
C      1.360500    2.060300    0.048100
C      2.036600    2.143900   -1.348100
N      2.284700    3.624600   -1.202600
C      0.948900    4.233300   -1.112300
C      1.491400    3.580700    0.096900
H     -0.746600    1.913800   -0.492400
H     -0.421600    1.628300    1.212700
H      2.034300    1.588600    0.766700
H      2.980300    1.602200   -1.416900
H      1.414600    1.888900   -2.213100
H      0.974000    5.318300   -1.138300
H      0.125900    3.789700   -1.669800
H      1.798900    4.148900    0.969100
