16
gdb_4027
C     -0.088300    1.421200   -0.032600
N     -0.035400   -0.018900    0.096000
C      0.625100   -0.641600    1.103000
O      1.233500   -0.063900    1.990900
C      0.568200   -2.155500    1.070300
C      1.274500   -2.914900    2.150200
N     -0.090300   -2.678500    0.106100
O     -0.088500   -4.068200    0.156700
H      0.477600    1.847300    0.796600
H      0.357200    1.754100   -0.977000
H     -1.120000    1.788300    0.013500
H     -0.498700   -0.611900   -0.574800
H      0.566000   -3.549200    2.692600
H      2.025100   -3.582500    1.715000
H      1.749400   -2.214200    2.835100
H     -0.611900   -4.310400   -0.615800
