10
gdb_729
C      0.024000    1.511800    0.031900
C     -0.055400    0.027900    0.044900
C     -1.045500   -0.860300   -0.247700
N     -0.531400   -2.119100   -0.051100
N      0.663000   -2.059700    0.328100
O      1.023500   -0.665400    0.406900
H      0.805300    1.852100   -0.654900
H     -0.929400    1.939400   -0.283400
H      0.268500    1.896100    1.027100
H     -2.058000   -0.697800   -0.574800
