18
gdb_16277
C     -0.108800    1.567600    0.053400
C      0.071600    0.057000    0.002800
C      1.172200   -0.566500   -0.923600
C      1.773300   -1.292200    0.283100
C      2.187500   -0.303600    1.324900
C      0.716700   -0.653600    1.218500
C     -0.012200   -1.224900    2.298000
C     -0.657300   -1.697400    3.198900
H      0.832600    2.084600    0.266100
H     -0.485300    1.946700   -0.903100
H     -0.827500    1.847300    0.831000
H     -0.889500   -0.419400   -0.209300
H      0.754400   -1.234800   -1.678900
H      1.843800    0.143000   -1.419300
H      2.122100   -2.317200    0.296400
H      2.679800   -0.715200    2.199100
H      2.535200    0.686100    1.038500
H     -1.218900   -2.115800    3.996300
