16
gdb_2157
C      0.320500    1.539000   -0.036400
C     -0.066200    0.052100    0.016900
C      0.490600   -0.780800   -1.153000
C      1.820400   -1.296900   -0.586700
O      1.614100   -1.405600    0.831100
C      0.561900   -0.625400    1.223600
N      0.182000   -0.483500    2.419400
H      1.404300    1.669400   -0.128900
H     -0.152500    2.028100   -0.893700
H     -0.001700    2.044000    0.877300
H     -1.152400   -0.026600    0.095800
H     -0.172500   -1.622300   -1.374500
H      0.624300   -0.203700   -2.071000
H      2.108600   -2.282200   -0.960300
H      2.647100   -0.599700   -0.772300
H      0.779600   -1.018300    3.052500
