14
gdb_10367
C     -0.165500   -1.297500   -0.127200
C     -0.097000   -0.099800   -0.063400
C     -0.009500    1.353800    0.052300
C     -0.193600    1.916400    1.504900
C      1.272400    2.360500    1.375600
O      1.373100    1.819800    0.039000
C     -0.817300    2.010900   -0.972300
C     -1.487000    2.575400   -1.794400
H     -0.224800   -2.355700   -0.198700
H     -0.930900    2.714800    1.575200
H     -0.396900    1.148300    2.249700
H      1.444000    3.442400    1.386800
H      1.977600    1.876900    2.060300
H     -2.073300    3.065600   -2.532300
