19
gdb_7634
C      0.236400    1.505100   -0.289200
C      0.024900    0.012100   -0.025100
C      0.726000   -0.422700    1.264400
N     -1.402500   -0.275600    0.067600
C     -1.822800   -1.693200    0.188200
C     -2.915800   -1.396600   -0.846600
O     -3.887800   -1.963300   -1.243500
C     -2.240000   -0.050100   -1.135900
H      1.303800    1.730600   -0.370400
H     -0.242200    1.822800   -1.220500
H     -0.183800    2.098700    0.529000
H      0.471700   -0.555000   -0.869700
H      0.317900    0.123100    2.121100
H      0.599900   -1.493400    1.451900
H      1.799300   -0.220400    1.201900
H     -1.094600   -2.422100   -0.207700
H     -2.141100   -2.015200    1.184700
H     -2.867800    0.846400   -1.121300
H     -1.688100   -0.084900   -2.091100
