19
gdb_11825
C     -0.593700    1.261600   -0.069100
C      0.005900   -0.135400   -0.075100
C      1.289400   -0.408200   -0.919900
O      2.000000    0.801400   -1.104800
C      1.843700   -1.286400    0.242300
C      0.779800   -0.661200    1.147900
C      0.968200    0.024300    2.442500
N      0.253300   -1.269800    2.362700
H      0.174600    2.013500    0.121300
H     -1.062000    1.493100   -1.031400
H     -1.367700    1.350000    0.702200
H     -0.755200   -0.874500   -0.356900
H      1.128700   -0.919600   -1.877900
H      2.882000    0.581100   -1.420000
H      1.676200   -2.356200    0.085100
H      2.891800   -1.118800    0.506100
H      1.930600   -0.017700    2.946400
H      0.395700    0.927800    2.636900
H     -0.750900   -1.113500    2.425800
