17
gdb_18324
O     -0.145900    0.019600    0.519600
C     -0.116100    1.150100    0.090900
C     -1.271600    1.959100   -0.528400
C     -0.974700    3.404300   -0.068500
C      0.568000    3.421600    0.023900
C      1.319600    3.703000    1.360400
C      1.824800    2.229400    1.309600
N      0.970200    2.003000    0.121700
H     -1.240000    1.870100   -1.620200
H     -2.227700    1.561000   -0.187200
H     -1.369000    4.165300   -0.745100
H     -1.413700    3.579500    0.919900
H      1.019300    3.924000   -0.839400
H      2.089600    4.475300    1.324100
H      0.648300    3.905300    2.198600
H      2.890500    2.119000    1.091300
H      1.562300    1.578900    2.148100
