16
gdb_13255
O     -0.097300    0.067800    0.472900
C      0.045500    1.148200   -0.032800
C      1.402600    1.786800   -0.278100
O      1.197300    3.008500   -0.946000
C      2.370400    3.747100   -1.159300
C      3.263100    3.361400   -2.365400
O      3.109600    4.677700   -2.933600
C      2.134000    5.049200   -1.937700
H     -0.809300    1.778700   -0.361900
H      1.904500    1.931700    0.693800
H      2.022900    1.087700   -0.861400
H      2.925300    3.870000   -0.219200
H      4.312400    3.121200   -2.161500
H      2.820000    2.580100   -2.997600
H      1.118200    5.114400   -2.347300
H      2.391600    5.987100   -1.434700
