14
gdb_9441
C     -0.108300    1.549300    0.110900
C     -0.022300    0.021100    0.010900
C      0.844200   -0.554300   -1.149500
O      1.813800   -1.059800   -0.185400
C      1.075300   -0.606000    0.882300
N      1.261600   -0.658200    2.115000
C     -1.333300   -0.603100    0.147800
N     -2.378100   -1.089200    0.232200
H      0.885300    1.987400   -0.015000
H     -0.774200    1.949800   -0.658000
H     -0.491000    1.836800    1.092400
H      0.396100   -1.366000   -1.724200
H      1.291800    0.194500   -1.806400
H      2.128500   -1.139700    2.357200
