17
gdb_3178
C      0.235000    1.479900   -0.024700
O      1.233400    0.456100   -0.018700
C     -0.147700    0.065200   -0.001200
C     -0.631700   -0.674900    1.253600
C     -1.515800   -1.824800    0.724000
C     -0.977000   -2.091500   -0.695300
C     -0.679800   -0.678500   -1.225100
H      0.168300    2.074800    0.886500
H      0.154400    2.050300   -0.950700
H      0.249300   -1.063100    1.775200
H     -1.160200   -0.019800    1.951700
H     -1.490400   -2.708300    1.367300
H     -2.561200   -1.499000    0.663000
H     -0.047800   -2.671200   -0.639600
H     -1.676600   -2.650500   -1.322400
H     -1.609800   -0.207400   -1.568400
H      0.037700   -0.644600   -2.048300
