12
gdb_21593
N      0.006000    1.412600    0.168000
C     -0.018600    0.028800    0.047900
C     -1.101900   -0.830100    0.030700
N     -0.582300   -2.091500   -0.023500
N      0.742500   -2.134700   -0.041000
C      1.107400   -0.842200   -0.000200
C      2.464300   -0.431800   -0.017200
N      3.544100   -0.012400   -0.037300
H      0.887300    1.824500   -0.108700
H     -0.767100    1.887800   -0.275000
H     -2.163400   -0.647700    0.057700
H     -1.093300   -2.958200   -0.050300
