19
gdb_5972
C     -0.027300    1.404500    0.009600
O      0.000800   -0.005300    0.002000
C     -1.282700   -0.580600    0.011300
C     -1.122000   -2.118900    0.001300
C     -0.386400   -2.572900   -1.278900
C     -0.362200   -2.586800    1.262300
C     -2.476800   -2.693200    0.011000
N     -3.543700   -3.138100    0.019600
H      1.008900    1.749700    0.001600
H     -0.545100    1.804900   -0.875400
H     -0.528100    1.795600    0.908400
H     -1.844900   -0.271200    0.907300
H     -1.862000   -0.261500   -0.870400
H      0.598400   -2.103100   -1.309900
H     -0.265300   -3.658900   -1.289900
H     -0.941200   -2.280500   -2.174700
H     -0.899800   -2.304200    2.171700
H     -0.241100   -3.672800    1.259200
H      0.623100   -2.117300    1.279800
