11
gdb_5708
C      0.066100    1.371900   -0.121900
O      1.467300    1.809200   -0.000600
C      1.974800    0.722200    0.624700
C      1.177600   -0.344100    0.629500
O     -0.009800   -0.063500   -0.014100
N      1.830300   -1.435000    1.123600
C      3.010200   -0.950400    1.402200
O      3.183300    0.399100    1.104000
H     -0.490200    1.827800    0.708100
H     -0.308900    1.686000   -1.095500
H      3.849600   -1.436600    1.867700
