15
gdb_12400
N     -0.124400    1.488700    0.026000
C     -0.041200    0.039700   -0.055400
C     -1.430700   -0.596600    0.009200
O     -1.305700   -1.998300   -0.186100
C     -0.837400   -2.276100   -1.457000
O      0.452700   -1.708900   -1.741200
C      0.763700   -0.477700   -1.263300
O      1.682200    0.134900   -1.734500
H      0.817800    1.867200   -0.019900
H     -0.592900    1.847400   -0.803100
H      0.516600   -0.319600    0.820300
H     -1.887900   -0.438000    0.986700
H     -2.093300   -0.161000   -0.757800
H     -0.713800   -3.356400   -1.543400
H     -1.531900   -1.905700   -2.228200
