20
gdb_14125
C      0.018100    1.449000   -0.222300
C      0.033100   -0.053500    0.103800
C      0.872900   -0.353400    1.354000
C     -1.369700   -0.576800    0.237300
C     -2.413800   -0.319200    1.347300
C     -3.048100   -1.714900    1.010900
C     -1.985800   -1.879400   -0.082300
O     -2.126400   -0.761500   -0.971600
H      1.034600    1.822500   -0.381600
H     -0.565900    1.645300   -1.125800
H     -0.423200    2.024800    0.599300
H      0.475400   -0.584000   -0.749300
H      0.480900    0.170600    2.232700
H      0.887600   -1.424600    1.578900
H      1.906600   -0.024000    1.209500
H     -1.989700   -0.286100    2.353400
H     -3.044400    0.558200    1.187500
H     -2.941400   -2.430900    1.829500
H     -4.081500   -1.716300    0.656200
H     -1.561300   -2.786600   -0.499100
