18
gdb_18056
C     -0.007100    1.545500    0.080400
O      1.431000    1.539100   -0.049900
C      1.388800    0.171300   -0.533400
C      2.488200   -0.726500    0.005400
C      2.211100   -1.155900    1.446800
O      0.896700   -1.678500    1.566100
C     -0.070800   -0.656900    1.418200
C     -0.047800    0.005400    0.025800
H     -0.336900    2.029700    1.006800
H     -0.489200    2.036800   -0.776400
H      1.401200    0.169600   -1.633400
H      2.542000   -1.621000   -0.626400
H      3.451200   -0.208400   -0.073300
H      2.893100   -1.952400    1.756400
H      2.342100   -0.304600    2.133900
H     -1.041200   -1.123800    1.608100
H      0.089700    0.109700    2.194600
H     -0.773900   -0.450900   -0.649400
