16
gdb_5734
C     -0.091300    1.518600    0.038900
C      0.034500    0.031200   -0.011600
C      0.110200   -0.830800   -1.079000
C      0.156100   -1.327800   -2.520300
C      0.275700   -2.763800   -1.883300
N      0.215500   -2.092400   -0.564700
C      0.204400   -2.004000    0.791000
N      0.096200   -0.734300    1.142400
H      0.753000    1.970400    0.571000
H     -0.124700    1.943200   -0.968300
H     -1.002200    1.822000    0.566500
H     -0.748400   -1.171100   -3.113100
H      1.024600   -1.021200   -3.108300
H     -0.564900   -3.436200   -2.069800
H      1.218300   -3.285400   -2.065000
H      0.273700   -2.845200    1.462600
