14
gdb_20717
C     -0.234100    1.478100   -0.002200
C      0.016400    0.002000   -0.027600
N     -0.004900   -0.620700   -1.167500
N      0.225200   -1.943200   -1.139800
C      0.483600   -2.713400   -0.016100
N      0.686700   -3.973500   -0.133300
C      0.476400   -1.881200    1.191200
N      0.259400   -0.612600    1.197000
H      0.622700    2.003400    0.432900
H     -0.411000    1.849600   -1.011900
H     -1.101100    1.707600    0.626200
H      0.204100   -2.407900   -2.036800
H      0.860800   -4.390700    0.779700
H      0.669000   -2.381000    2.141500
