15
gdb_8571
O      0.010600   -0.024100   -0.030200
C     -0.033800    1.177400    0.008600
N     -1.179800    1.928800    0.091700
C     -1.106300    3.381600    0.029600
C     -0.097300    3.765500   -1.093500
C      0.974300    3.361700   -0.049100
C     -0.016400    3.823700    1.048100
O      1.113000    1.928500   -0.014600
H     -2.046500    1.433400   -0.029600
H     -2.106300    3.813000    0.058900
H     -0.135300    3.205200   -2.029500
H     -0.078600    4.840100   -1.284600
H      1.988000    3.756700   -0.098300
H      0.011200    4.907000    1.178900
H      0.015700    3.313000    2.011800
