13
gdb_4388
C      0.058600    1.490100    0.022600
C     -0.071000    0.003900    0.005800
C     -1.217700   -0.705700   -0.156500
C     -1.095400   -2.121500   -0.137600
N      0.019700   -2.774600    0.021400
C      1.187400   -2.064700    0.186600
O      2.283100   -2.508300    0.342600
O      1.091800   -0.627400    0.171700
H      0.739400    1.816000   -0.770600
H     -0.911900    1.968700   -0.115700
H      0.491600    1.817900    0.973300
H     -2.170800   -0.215500   -0.292500
H     -1.991300   -2.730200   -0.264300
