16
gdb_12627
C     -0.273100    1.573200   -0.037400
C      0.067200    0.079300   -0.023200
C      0.799700   -0.454000   -1.237300
C      1.852500   -1.215400   -0.929800
C      1.996500   -1.402900    0.558300
O      3.305300   -1.255600    1.054800
C      1.055000   -0.305700    1.084900
O      1.197500    0.226600    2.156300
H      0.619500    2.173300   -0.237500
H     -1.015800    1.795500   -0.809000
H     -0.675200    1.878800    0.931700
H     -0.860600   -0.490500    0.146300
H      0.474600   -0.220000   -2.245300
H      2.519200   -1.694900   -1.636100
H      1.582800   -2.385600    0.857400
H      3.215700   -0.787300    1.897000
