18
gdb_18299
O      0.338200    1.087200    0.614900
C      0.093900   -0.204500    0.161500
C     -1.327300   -0.693200   -0.054600
C     -2.503300    0.258500    0.083100
C     -3.107600    0.500700   -1.311300
C     -2.049100    1.054900   -2.289900
O     -0.695700    0.853600   -1.853400
C     -0.430300   -0.375000   -1.239200
H      0.183300    1.662700   -0.148100
H      0.819500   -0.922600    0.532000
H     -1.517900   -1.742700    0.148600
H     -3.259300   -0.159900    0.752800
H     -2.167900    1.199900    0.530800
H     -3.500800   -0.450600   -1.686600
H     -3.953000    1.194600   -1.264700
H     -2.175900    0.617100   -3.289500
H     -2.140700    2.140500   -2.390700
H     -0.053900   -1.151100   -1.903300
