18
gdb_10803
C     -0.127200    1.575500    0.048900
C     -0.022900    0.076400   -0.022300
C     -0.035900   -0.587300   -1.181000
C      0.119300   -2.079700   -1.318100
C      0.353500   -2.800300    0.004500
O      0.985200   -3.828100    0.074700
C     -0.279300   -2.131300    1.210400
C      0.119800   -0.646800    1.299200
H      0.739700    2.006200    0.567000
H     -0.185800    2.026100   -0.945100
H     -1.012800    1.885100    0.618800
H     -0.138100   -0.031900   -2.111100
H     -0.783200   -2.517200   -1.774700
H      0.941200   -2.340700   -1.994900
H     -1.369300   -2.192200    1.085100
H     -0.007500   -2.687300    2.110400
H      1.157700   -0.559600    1.652400
H     -0.490000   -0.149800    2.063600
