17
gdb_13689
C     -0.348600    1.388600    0.349100
N     -0.060400   -0.034800    0.269100
C      1.242600   -0.446200   -0.228200
C      0.871300   -0.663400    1.201900
C      1.610100    0.079500    2.284700
O      0.782800    0.173900    3.456700
C      0.589400    1.385600    4.008100
O     -0.069600    1.553700    4.988900
H      0.525400    2.028100    0.553700
H     -0.770800    1.709200   -0.608100
H     -1.099000    1.563900    1.126000
H      1.257500   -1.277000   -0.928400
H      1.978500    0.332400   -0.434500
H      0.557600   -1.658400    1.512700
H      2.509000   -0.479800    2.566600
H      1.922600    1.079200    1.964000
H      1.103800    2.196400    3.454500
