15
gdb_2941
O      0.074600    1.346200   -0.203100
C      0.059900   -0.055400   -0.034000
C     -1.365900   -0.559500    0.216000
O     -2.191900   -0.116000   -0.874500
C     -2.783000   -1.232800   -1.539100
C     -2.302800   -2.436400   -0.778300
C     -1.515600   -2.054500    0.220600
H     -0.609300    1.534400   -0.857800
H      0.471300   -0.578100   -0.913000
H      0.698400   -0.285100    0.826500
H     -1.737500   -0.093200    1.142100
H     -3.879500   -1.133600   -1.523000
H     -2.475800   -1.251400   -2.596400
H     -2.585000   -3.449300   -1.036100
H     -1.025900   -2.693400    0.944300
