14
gdb_20583
C     -0.002300    1.508000    0.096600
C      0.016200    0.022600   -0.027800
C     -0.000300   -0.797400   -1.154100
C      0.032200   -2.120500   -0.631900
N      0.065800   -2.130600    0.690500
N      0.055300   -0.821400    1.029900
C     -0.040500   -0.385500   -2.503900
C     -0.074700   -0.035700   -3.656600
H      0.889800    1.884400    0.609900
H     -0.033100    1.953500   -0.899500
H     -0.879000    1.858700    0.652900
H      0.031700   -3.046900   -1.186100
H      0.076300   -0.574500    2.005300
H     -0.104800    0.267300   -4.673500
