20
gdb_19764
C      0.055800    1.571900   -0.090800
C      1.542600    1.870000    0.049400
C      2.167800    0.703900    0.794600
C      1.053200   -0.288500    1.097900
C      0.011700    0.028700   -0.000300
C      0.484300   -0.571800   -1.336600
C      1.901800   -0.053000   -1.714000
C      2.460300    0.911200   -0.673800
H     -0.499600    2.031900    0.735400
H     -0.380200    1.941600   -1.026500
H      1.869200    2.890200    0.218500
H      2.960500    0.854900    1.519100
H      1.376900   -1.335600    1.067500
H      0.643200   -0.099600    2.097400
H     -0.984700   -0.347000    0.247800
H      0.487000   -1.664600   -1.261400
H     -0.235300   -0.317200   -2.122300
H      2.596000   -0.893200   -1.830100
H      1.876300    0.449100   -2.688000
H      3.450400    1.295900   -0.902400
