19
gdb_16908
C      0.069100    1.531700    0.072700
C      0.021200    0.013600    0.008500
C      0.621700   -0.537300   -1.291700
N      0.948900   -1.974300   -1.257100
C      2.213400   -2.343500   -0.614900
C      0.923000   -2.658000    0.044800
C      0.506500   -1.884000    1.280600
O      0.734000   -0.496900    1.132600
H      1.107200    1.877900    0.061100
H     -0.451800    1.969500   -0.784500
H     -0.403800    1.893300    0.989500
H     -1.027500   -0.323200    0.085000
H     -0.091000   -0.372800   -2.109300
H      1.529900    0.025600   -1.539700
H      2.785500   -3.119900   -1.116700
H      2.805700   -1.544100   -0.173400
H      0.539100   -3.676700    0.003300
H     -0.561200   -2.069700    1.489500
H      1.079400   -2.210300    2.155300
