16
gdb_19883
O      0.056600    1.405700   -0.148200
C     -0.035200    0.031000   -0.003900
C     -0.410300   -0.680800    1.269100
C     -1.154900    0.078900    2.374900
C     -2.519500    0.443700    1.803500
O     -2.486900    1.369200    0.699900
C     -2.610800   -0.052000    0.420300
C     -1.335100   -0.757200    0.038900
H     -0.797500    1.773800    0.126300
H      0.760500   -0.451700   -0.565800
H      0.190600   -1.533000    1.569800
H     -1.293500   -0.567300    3.247600
H     -0.613700    0.971200    2.710400
H     -3.376900    0.570500    2.459600
H     -3.547200   -0.328300   -0.054200
H     -1.434400   -1.653900   -0.562200
