19
gdb_16338
C     -0.279600    1.497200    0.033500
C      0.142800    0.021000    0.055700
C      0.777900   -0.402000   -1.238300
C      0.021900   -0.923800   -2.396400
N      0.920000   -1.857100   -1.688000
C      2.291800   -1.524600   -2.211100
C      2.204200   -0.073800   -1.658800
O      2.305300    1.025800   -2.539000
H      0.572800    2.147500   -0.187000
H     -1.035700    1.676800   -0.737400
H     -0.698300    1.800500    0.997700
H      0.846100   -0.152100    0.880800
H     -0.724900   -0.619900    0.249700
H     -1.029300   -1.143400   -2.233600
H      0.273200   -0.609800   -3.406500
H      3.048100   -2.146700   -1.727500
H      2.382500   -1.612000   -3.299100
H      2.854700    0.061100   -0.784100
H      3.237300    1.187900   -2.717600
