18
gdb_9559
O     -0.095300    1.433100   -0.047900
C      0.014500    0.011700    0.055200
C     -1.414600   -0.520900    0.016100
O     -2.172200    0.087700    1.033100
C     -2.026300   -0.546300   -1.422500
C     -1.627000   -2.043700   -1.525800
C     -1.489500   -2.061600    0.022300
O     -0.386200   -2.705000    0.619200
H      0.736800    1.823100    0.232600
H      0.615000   -0.401800   -0.765700
H      0.477900   -0.284500    1.003900
H     -1.889300    1.011900    1.051600
H     -3.107900   -0.405300   -1.370900
H     -1.605600    0.146700   -2.153000
H     -2.344200   -2.732700   -1.976600
H     -0.652200   -2.183400   -2.000800
H     -2.435400   -2.355600    0.496700
H     -0.555800   -3.651500    0.636500
