15
gdb_4670
C     -0.030300    1.529200    0.011500
C      0.003900    0.032200    0.007400
C     -0.033000   -0.787000   -1.083000
N      0.019600   -2.109800   -0.647100
C      0.003400   -3.229500   -1.466600
O      0.049900   -4.364100   -1.068000
C      0.090700   -2.120500    0.739900
C      0.082700   -0.826600    1.165000
H      0.866100    1.949700    0.481600
H     -0.091400    1.927300   -1.005000
H     -0.892600    1.909300    0.571400
H     -0.092000   -0.562000   -2.136300
H     -0.057500   -2.950800   -2.534300
H      0.138900   -3.061200    1.261200
H      0.127800   -0.500700    2.193900
