20
gdb_13087
C     -0.579100    1.387900   -0.064600
C      0.080500    0.017500   -0.066000
C      1.472100   -0.162600   -0.733900
C      1.855900   -1.150900    0.399500
C      0.677200   -0.589900    1.250700
C      1.118800    0.435700    2.308200
C      1.769100   -0.264600    3.477800
O      2.928300   -0.163200    3.789200
H      0.085500    2.159800    0.337400
H     -0.847900    1.685900   -1.084100
H     -1.498700    1.393200    0.532000
H     -0.616700   -0.715700   -0.487900
H      1.493500   -0.534200   -1.761200
H      2.062300    0.758300   -0.691000
H      1.692400   -2.193000    0.112500
H      2.856800   -1.062500    0.829000
H      0.043100   -1.342600    1.732200
H      1.829200    1.160400    1.899700
H      0.239400    0.978800    2.681300
H      1.081700   -0.933700    4.048700
