22
gdb_10362
C      0.066000    1.302700    0.132500
O      0.086900   -0.103800    0.014200
C      0.707100   -0.600700   -1.180200
C      2.212500   -0.712400   -0.910500
O      2.474100   -1.568400    0.185500
C      0.020900   -1.936200   -1.519000
C     -1.482300   -1.729300   -1.748100
C      0.668300   -2.624800   -2.728500
H      1.073400    1.742600    0.149400
H     -0.498400    1.766100   -0.690300
H     -0.430600    1.538600    1.077300
H      0.539900    0.110600   -2.006600
H      2.737700   -1.121800   -1.777700
H      2.623000    0.295500   -0.734000
H      1.855400   -1.296400    0.875200
H      0.155300   -2.584500   -0.645000
H     -1.986400   -2.689100   -1.899600
H     -1.943600   -1.228700   -0.894600
H     -1.662500   -1.118100   -2.641500
H      1.696100   -2.935900   -2.525400
H      0.102100   -3.521200   -2.999900
H      0.677100   -1.966100   -3.606000
