11
gdb_3752
C     -0.006500    1.452400   -0.002100
N      0.013700    0.003400   -0.036600
C      0.063200   -0.839800   -1.108400
N      0.068300   -2.086700   -0.779200
O      0.018000   -2.080200    0.637900
C     -0.015900   -0.794400    1.103600
O     -0.061200   -0.460300    2.254500
H      0.899300    1.868500   -0.452100
H     -0.884800    1.845100   -0.521900
H     -0.051300    1.740700    1.049400
H      0.095100   -0.505500   -2.135100
