20
gdb_10653
C      0.301700    1.512100    0.319400
C     -0.201100    0.130300   -0.119600
C      0.591900   -0.453800   -1.275500
C      2.000900   -1.004900   -1.056300
C      0.903700   -1.956500   -1.392300
C      0.378300   -2.970200   -0.400300
C      0.375200    0.190800   -2.595300
O     -0.409600    1.081200   -2.816700
H      1.347800    1.469200    0.641700
H      0.225500    2.230100   -0.500500
H     -0.291500    1.890800    1.157400
H     -0.174300   -0.554800    0.733000
H     -1.249300    0.209800   -0.428200
H      2.763700   -0.787400   -1.797400
H      2.356300   -0.980900   -0.031000
H      0.908800   -2.321000   -2.417700
H      0.465100   -2.621900    0.631800
H     -0.673400   -3.209500   -0.589300
H      0.951400   -3.900400   -0.479600
H      1.007000   -0.230000   -3.415100
