18
gdb_20001
O     -0.023900   -0.011000   -0.433200
C      0.015800    1.133800   -0.052400
C      1.248400    1.943800    0.034800
C      1.155100    3.450500   -0.192000
C      1.454900    2.947500    1.178700
C      0.485800    3.102600    2.309300
C      0.750600    2.429000    3.633600
C      0.876700    3.926900    3.512900
H     -0.915500    1.665400    0.252100
H      2.131900    1.431400   -0.330200
H      1.938300    3.911300   -0.782700
H      0.162500    3.853900   -0.371300
H      2.494900    3.012400    1.490100
H     -0.556400    3.174100    2.013700
H     -0.091900    2.021900    4.181300
H      1.663000    1.849700    3.729900
H      1.873700    4.355100    3.528800
H      0.120000    4.550200    3.975900
