11
gdb_2741
O     -0.056300    0.002700    0.030400
C     -0.049400    1.196800    0.031100
N     -1.019400    2.159700   -0.014000
C     -0.131500    3.321200    0.051800
C      1.066700    2.316300    0.057000
C      1.940800    2.339000    1.210700
N      2.627600    2.362100    2.140300
H     -2.024700    2.081600   -0.052600
H     -0.171600    3.973500   -0.824600
H     -0.227300    3.911400    0.966300
H      1.649500    2.323300   -0.866700
