17
gdb_4536
C      0.093300    1.430700   -0.008600
N     -0.037800   -0.005200    0.018000
C     -0.144900   -0.810900   -1.095000
C     -0.036000   -2.123700   -0.691200
N     -0.181300   -3.314900   -1.439200
C      0.156800   -2.116600    0.722000
N      0.343500   -3.297200    1.476400
C      0.162600   -0.799500    1.126800
H      1.131900    1.756700   -0.157100
H     -0.516100    1.840700   -0.818900
H     -0.268500    1.851300    0.934000
H     -0.295800   -0.385200   -2.074600
H     -0.192500   -3.136900   -2.436200
H      0.580200   -3.957400   -1.242000
H      0.307000   -3.120300    2.472900
H     -0.370700   -3.983300    1.250500
H      0.290300   -0.362800    2.104800
