13
gdb_3192
O      0.003200    1.446200    0.009800
C      1.433900    1.571400   -0.003600
C      1.792300    0.712500    1.238200
C      0.894600   -0.266900    1.242200
C      0.003000    0.010000    0.002500
C      0.870200   -0.254300   -1.257000
C      1.767700    0.725300   -1.261000
H      1.744700    2.614800   -0.001400
H      2.637300    0.879800    1.890200
H      0.804200   -1.120400    1.898200
H     -1.009300   -0.390500    0.010400
H      0.766800   -1.101200   -1.919700
H      2.599700    0.899200   -1.927700
