21
gdb_6746
C     -0.023200    1.439400    0.075400
O      0.065900    0.027000   -0.060100
C     -1.107700   -0.636100   -0.023000
N     -1.147600   -1.882600   -0.183000
C     -2.441200   -2.534000   -0.111100
C     -2.731000   -3.371600   -1.370100
C     -4.003000   -4.204400   -1.171900
C     -2.825500   -2.493200   -2.622400
H      1.001600    1.812400    0.088400
H     -0.558200    1.891700   -0.768700
H     -0.519600    1.724700    1.011100
H     -1.986300    0.002800    0.163800
H     -2.432300   -3.206600    0.757100
H     -3.268000   -1.815800    0.047200
H     -1.881300   -4.055100   -1.495600
H     -4.878400   -3.560300   -1.023000
H     -4.202100   -4.832300   -2.046200
H     -3.921200   -4.861300   -0.299200
H     -2.990400   -3.100900   -3.518100
H     -3.662200   -1.787100   -2.542900
H     -1.908600   -1.916100   -2.768800
