17
gdb_16229
C     -0.217000    1.508000    0.010100
C      0.052200    0.003900   -0.039300
N      1.018200   -0.317500   -1.113300
C      1.989900   -0.901600   -0.549100
O      1.969100   -1.119800    0.786600
C      0.705800   -0.592100    1.223700
C      0.672400   -0.035100    2.610300
C      0.004200   -1.363800    2.293100
H      0.695700    2.058800    0.256300
H     -0.572800    1.850000   -0.965000
H     -0.979600    1.748600    0.757900
H     -0.888600   -0.515400   -0.260900
H      2.883900   -1.263000   -1.045400
H      1.597800   -0.065700    3.174400
H      0.048900    0.830000    2.806600
H     -1.080300   -1.405100    2.259900
H      0.485200   -2.265500    2.655000
