14
gdb_4046
O     -0.183900    1.338200    0.007900
N      0.010300   -0.053500    0.002600
C     -1.103000   -0.664600    0.008500
C     -2.480800   -0.028600    0.019900
N     -3.353000   -1.185100    0.023200
C     -2.743800   -2.411800    0.016800
O     -3.304200   -3.483600    0.018800
C     -1.228900   -2.164100    0.005100
H      0.719400    1.673000    0.002800
H     -2.608900    0.607700    0.905500
H     -2.621500    0.612100   -0.860600
H     -4.358400   -1.122400    0.032000
H     -0.784700   -2.629100   -0.880000
H     -0.770100   -2.634500    0.879900
