13
gdb_2416
O      0.135600    1.427000   -0.089100
C      0.106500    0.041600   -0.069900
C      0.028500   -0.673000    1.312400
O     -1.358700   -0.153400    1.448000
C     -1.280200   -0.663900    0.050300
C     -0.595200   -1.919800    0.617300
O      0.141400   -2.695200   -0.282800
H     -0.506800    1.706000    0.579300
H      0.810000   -0.347900   -0.804100
H      0.676500   -0.594400    2.186300
H     -2.174600   -0.574300   -0.566400
H     -1.243300   -2.496700    1.284400
H      0.582000   -3.396700    0.206500
