14
gdb_3630
C     -0.011300    1.560800   -0.072000
C      1.473300    1.836300    0.056100
C      2.287700    0.709300   -0.569600
C      2.095000    0.771600    0.920400
N      1.146800   -0.411400    0.922300
C      0.045000    0.052600    0.018200
C      1.304500   -0.472200   -0.568200
H     -0.590300    2.005200    0.744600
H     -0.431800    1.897700   -1.025600
H      1.883500    2.838100    0.066400
H      3.169000    0.840900   -1.180300
H      2.776900    0.922600    1.746000
H     -0.852100   -0.555200    0.054400
H      1.418200   -1.414300   -1.091500
