16
gdb_7564
C     -0.688900    1.337000    0.030800
C      0.182700    0.096800    0.013300
O      0.857300   -0.238900    0.959500
C      0.140600   -0.752500   -1.262300
O     -0.142400    0.007800   -2.417400
C      1.237600   -1.837200   -1.374400
O      0.276600   -2.897800   -1.195400
C     -0.816100   -1.969200   -1.152100
H     -0.712200    1.748700    1.040100
H     -0.294100    2.087700   -0.661900
H     -1.701200    1.106900   -0.316100
H      0.617800    0.566800   -2.613300
H      1.714300   -1.870600   -2.361700
H      1.984600   -1.821600   -0.576400
H     -1.399400   -2.055700   -0.228100
H     -1.476800   -2.043800   -2.024300
