14
gdb_23652
C      0.005300    1.504200   -0.000800
C      0.017500   -0.001700    0.024400
N      0.148600   -0.616600   -1.161000
C      0.163400   -1.949400   -1.175200
C      0.051700   -2.749700   -0.041300
C     -0.082600   -2.092000    1.170300
F     -0.194500   -2.793200    2.297200
C     -0.102000   -0.707000    1.223800
H      0.932800    1.881900   -0.442600
H     -0.815800    1.864500   -0.628500
H     -0.105300    1.928000    0.999900
H      0.271000   -2.415800   -2.151700
H      0.067900   -3.830800   -0.093100
H     -0.207400   -0.200400    2.175400
