17
gdb_18025
O      0.033700    1.257400   -0.418200
C      0.070700   -0.097700    0.000800
C     -1.337500   -0.620800    0.200900
O     -2.126600   -0.479700   -1.025500
C     -2.563600   -1.851100   -0.961900
C     -1.700400   -2.833200   -1.780400
N     -0.724100   -2.918500   -0.652600
C     -1.624600   -2.137800    0.233900
H     -0.531700    1.276900   -1.199600
H      0.597700   -0.738600   -0.717000
H      0.619100   -0.124100    0.949300
H     -1.835600   -0.075300    1.013900
H     -3.651100   -1.946600   -0.988500
H     -2.223200   -3.774100   -1.994100
H     -1.279900   -2.434500   -2.709000
H     -0.561100   -3.863300   -0.328500
H     -1.907400   -2.594600    1.182900
