18
gdb_12381
C      0.002500    1.576300   -0.006800
C      0.098400    0.051800    0.010700
C      0.747600   -0.543200   -1.257100
C      0.941300   -2.051100   -1.120000
O      1.755400   -2.358800   -0.000300
C      1.170300   -1.960600    1.225000
C      0.802300   -0.474100    1.260900
O      1.022400    0.205600    2.235500
H      0.997400    2.026900   -0.078900
H     -0.588400    1.914500   -0.863400
H     -0.459900    1.948800    0.909400
H     -0.919000   -0.370600    0.075700
H      0.128900   -0.318600   -2.134000
H      1.726100   -0.075700   -1.421600
H     -0.036300   -2.557400   -1.031400
H      1.456200   -2.465500   -1.991100
H      0.251900   -2.543500    1.428800
H      1.890600   -2.165900    2.019100
