14
gdb_4140
O     -0.162900    1.375700    0.093600
N      0.006500   -0.027000    0.079100
C     -1.099100   -0.620400   -0.017600
C     -2.611400   -0.451000   -0.035500
N     -2.607600   -1.594000   -1.048200
C     -1.607000   -2.046600    0.011900
C     -2.608900   -1.532700    1.115700
O     -2.210500   -1.251600    2.413800
H      0.749100    1.685400    0.115500
H     -3.212800    0.446300   -0.158300
H     -3.472300   -2.134400   -0.924100
H     -1.055900   -2.982200   -0.056000
H     -3.536600   -2.110200    1.167500
H     -1.378600   -0.760700    2.383800
