15
gdb_18043
C      0.043000    1.525800    0.151900
O      1.456500    1.554000   -0.146300
C      1.436700    0.168700   -0.544900
C      2.495900   -0.680000    0.119300
O      2.262700   -0.895800    1.516600
C      0.974100   -0.999700    1.911900
N     -0.090300   -0.680400    1.305400
C      0.009300   -0.018100    0.022800
H     -0.184100    1.919500    1.146800
H     -0.543000    2.058900   -0.607500
H      1.518200    0.065200   -1.636400
H      2.532100   -1.658000   -0.379600
H      3.479900   -0.210200    0.044700
H      0.930100   -1.422100    2.914400
H     -0.743100   -0.422300   -0.656800
