17
gdb_6169
C      1.043600    0.938400   -0.535300
C      0.041300   -0.039500    0.034700
C     -1.157700   -0.322100   -0.844900
O      0.593900   -1.210700    0.671600
C     -0.095000   -0.260000    1.493100
C      0.701200    0.484300    2.540100
N      2.023800    0.165600    2.565200
O      0.167100    1.287100    3.280300
H      1.877100    1.109000    0.146700
H      1.438700    0.555700   -1.482600
H      0.559000    1.898600   -0.739500
H     -0.832600   -0.686600   -1.825300
H     -1.803300   -1.078800   -0.393600
H     -1.742600    0.589900   -1.002500
H     -1.067500   -0.577900    1.867200
H      2.353700   -0.605200    2.007800
H      2.598700    0.545100    3.299000
