15
gdb_10931
C      0.072200    1.554100    0.010600
C     -0.078000    0.073900    0.124900
C     -1.363500   -0.768500    0.018600
C     -0.691800   -1.827700    0.977100
C     -0.536500   -3.191500    0.495800
N     -0.416700   -4.276900    0.117000
C      0.571000   -0.934800    0.983700
O      0.979000   -0.765000   -0.369600
H      1.088300    1.855500    0.277200
H     -0.123000    1.883400   -1.016000
H     -0.634100    2.069100    0.669400
H     -2.242300   -0.309600    0.475600
H     -1.602300   -1.117300   -0.987100
H     -1.182600   -1.838500    1.953800
H      1.326900   -0.863200    1.757100
