10
gdb_2815
N     -0.176900   -1.159900   -0.008200
C     -0.076400   -0.009600    0.018100
C      0.015800    1.430700    0.009200
N      0.531400    2.075100    1.220800
C      1.340500    2.147300    0.000400
C      2.596500    1.436400    0.000600
N      3.613900    0.890700   -0.033200
H     -0.781500    1.918000   -0.546400
H      0.054900    2.957900    1.386900
H      1.363100    3.078200   -0.560600
