14
gdb_4882
C      0.260600    1.297800   -0.520600
C     -0.172500    0.215200    0.472300
C     -1.518000   -0.337400    0.175100
C     -2.439800   -0.109200   -0.758800
O     -3.527900   -0.937100   -0.540700
C     -3.248900   -1.689700    0.564900
O     -3.955400   -2.512500    1.049800
O     -2.007600   -1.327600    1.016900
H      1.253400    1.673400   -0.262700
H      0.304000    0.904700   -1.540900
H     -0.432600    2.144400   -0.510600
H      0.552100   -0.609300    0.477700
H     -0.175100    0.614400    1.494800
H     -2.492100    0.558100   -1.599600
