12
gdb_21555
N     -0.069800    1.458500    0.111700
C     -0.177700    0.128000   -0.221000
C     -1.505400   -0.461800    0.069400
C     -1.757000   -1.711500   -0.270200
N     -2.026800   -2.815800   -0.692100
N      1.121200   -3.457200    0.571900
N      2.180800   -3.169800    0.602300
O      0.757600   -0.504300   -0.678900
H      0.764100    1.923100   -0.211700
H     -0.892400    2.026200    0.228000
H     -2.274300    0.100100    0.586900
H     -1.803900   -3.623200   -0.112100
