13
gdb_9865
C     -0.028500    1.512200    0.021800
C     -0.016900   -0.000100   -0.056100
C      0.764700   -0.705900   -1.097800
O      1.237800   -0.636600    0.241600
C     -1.172600   -0.667100    0.494200
C     -2.154700   -1.191700    0.964000
C     -3.262000   -1.793800    1.487900
N     -4.206400   -2.304600    1.931500
H      0.889200    1.909500   -0.417500
H     -0.889200    1.919400   -0.516500
H     -0.088700    1.839400    1.063400
H      0.447300   -1.690200   -1.435400
H      1.310600   -0.106200   -1.824800
