15
gdb_2134
C     -0.124700    1.586400    0.023700
C      0.025400    0.058400   -0.031500
C      0.814500   -0.487100   -1.194700
C      1.830300   -1.266300   -0.818600
C      1.926700   -1.407400    0.676300
C      0.802100   -0.490300    1.184000
O      0.573800   -0.220600    2.334000
H      0.851000    2.078400   -0.040100
H     -0.742400    1.949500   -0.803000
H     -0.594500    1.878800    0.966500
H     -0.983000   -0.382400   -0.000300
H      0.561300   -0.252800   -2.223000
H      2.518700   -1.758600   -1.495900
H      1.758200   -2.433300    1.031000
H      2.890800   -1.096700    1.098000
