19
gdb_12197
C      0.042400    1.586800   -0.116800
C      0.079600    0.072000    0.010900
C      1.060100   -0.733900   -0.882600
C      1.282300   -1.710700    0.311800
C      2.619000   -2.228000    0.545500
N      3.690800   -2.619500    0.736300
C      0.717400   -0.601900    1.275100
C      1.783000    0.209200    2.004100
H      1.035200    2.028700    0.011800
H     -0.325500    1.880600   -1.106000
H     -0.623500    2.034600    0.628900
H     -0.932700   -0.326900   -0.120500
H      0.680400   -1.169200   -1.808800
H      1.968700   -0.168800   -1.105600
H      0.586600   -2.552600    0.253900
H     -0.005500   -0.985700    2.000200
H      2.551000    0.593000    1.325300
H      1.332100    1.063700    2.518100
H      2.290400   -0.406400    2.752900
