15
gdb_4805
N      0.047400    1.392100    0.101800
C      0.012100   -0.007200    0.032300
C     -1.036400   -0.816500   -0.292200
O     -0.629100   -2.127700   -0.327500
C      0.690700   -2.143200   -0.024800
C      1.372900   -3.473800    0.004400
O      2.490300   -3.479200    0.875800
C      1.141200   -0.879600    0.207800
H      0.672400    1.731300    0.821300
H     -0.866400    1.806400    0.230900
H     -2.073100   -0.636800   -0.520700
H      0.632000   -4.247300    0.260800
H      1.773500   -3.734000   -0.983200
H      2.179900   -3.183100    1.738400
H      2.153700   -0.598100    0.451500
