11
gdb_23881
O      0.026000    1.411700    0.011500
C     -0.019700    0.013200    0.004600
C     -1.469100   -0.435600    0.011700
O     -2.423100    0.286900    0.021600
C     -1.651200   -1.980600    0.004900
F     -2.927700   -2.321200    0.011500
F     -1.067500   -2.506700   -1.085200
F     -1.053400   -2.517900    1.081900
H      0.949100    1.681200    0.006900
H      0.455000   -0.437000   -0.883700
H      0.466400   -0.446100    0.882000
