20
gdb_13557
C     -0.229000    1.462000    0.103100
C      0.033400   -0.041300   -0.098300
C      0.833300   -0.252500   -1.371100
O      0.467600   -0.879700   -2.331200
C      0.809200   -0.626000    1.075000
C      0.092100   -1.123500    2.309700
C      0.813800   -2.101700    1.414100
C      0.054300   -3.137900    0.612500
H      0.711800    2.022600    0.149700
H     -0.828700    1.875400   -0.713400
H     -0.762200    1.628800    1.043300
H     -0.917100   -0.566300   -0.228400
H      1.839000    0.235200   -1.354700
H      1.749000   -0.108600    1.259200
H      0.505200   -0.887800    3.284500
H     -0.993800   -1.136200    2.281000
H      1.763400   -2.464900    1.799700
H     -0.929100   -2.776600    0.299600
H      0.600500   -3.426900   -0.291500
H     -0.106100   -4.040800    1.211500
