16
gdb_20156
C     -0.049600    1.576600    0.005900
C      1.473200    1.772200    0.039200
C      1.937600    0.976600    1.277400
C      2.458600   -0.155600    0.427500
C      1.096000   -0.275300    1.076800
C      0.061400    0.038400   -0.048000
O      0.808000   -0.137900   -1.266300
C      1.984600    0.546100   -0.858200
H     -0.534700    1.949500    0.912700
H     -0.544100    1.976400   -0.882800
H      1.892100    2.757600   -0.150500
H      2.275900    1.352300    2.234200
H      3.279400   -0.846200    0.570900
H      0.912900   -0.980500    1.875100
H     -0.848500   -0.557700   -0.072600
H      2.659500    0.713900   -1.693800
