22
gdb_15261
C      0.013400    1.529900    0.181300
C      0.017400    0.049200   -0.218500
C     -1.365600   -0.567300   -0.131300
C     -1.602100   -2.064600    0.028100
C     -0.459500   -3.055200    0.106900
C     -1.894800   -1.104600    1.167300
O     -1.031100   -1.049400    2.261600
C     -1.401600   -1.933600    3.300300
H      1.011300    1.969500    0.084300
H     -0.669000    2.110900   -0.449400
H     -0.309600    1.644900    1.220300
H      0.393700   -0.056900   -1.244300
H      0.711800   -0.492500    0.428200
H     -2.103800   -0.049400   -0.740900
H     -2.479900   -2.444100   -0.490000
H      0.311900   -2.725100    0.805900
H     -0.818200   -4.032800    0.447400
H      0.011700   -3.201200   -0.871400
H     -2.938200   -0.916200    1.427800
H     -1.391600   -2.981400    2.969500
H     -0.676700   -1.805300    4.107800
H     -2.406700   -1.702200    3.684900
