17
gdb_19933
C      0.193900    1.589200    0.152200
C      1.316900    0.648900   -0.066000
C      2.128400    0.230900    1.156000
C      1.103900   -0.392900    2.105200
O      0.423100    0.537000    2.991700
C     -0.867200    0.127900    2.477100
C     -0.202200   -0.600600    1.299600
N     -0.075700    0.142300    0.034100
H      0.132900    2.065900    1.126200
H     -0.197400    2.178600   -0.672500
H      1.785200    0.571800   -1.043300
H      2.879100   -0.516400    0.877700
H      2.650300    1.066100    1.633200
H      1.497000   -1.245300    2.671000
H     -1.383400   -0.541800    3.176700
H     -1.515100    0.977800    2.239800
H     -0.536300   -1.616500    1.083200
