13
gdb_4647
C      0.040700    1.467100   -0.050800
C     -0.057500   -0.013800    0.004400
N     -1.099900   -0.759900   -0.162400
C     -0.630600   -2.070700   -0.004600
C      0.704300   -2.018800    0.254500
O      1.084900   -0.712800    0.263500
C     -1.460200   -3.210300   -0.109900
C     -2.158700   -4.186200   -0.197800
H      0.739300    1.785300   -0.831200
H     -0.945900    1.878100   -0.264600
H      0.400400    1.872400    0.900400
H      1.465100   -2.756200    0.440600
H     -2.779800   -5.043700   -0.276500
