14
gdb_258
C     -0.083500    1.561700    0.050100
C     -0.062300    0.034600    0.023300
O      0.203200   -0.465600   -1.284200
C      0.930300   -0.548000    1.049000
C      0.888400   -2.060800    1.106700
O      0.863300   -2.700400    2.127800
H      0.913200    1.967200   -0.166000
H     -0.780000    1.941000   -0.702500
H     -0.389500    1.937900    1.031000
H     -1.067200   -0.338500    0.255700
H      1.020900   -0.059700   -1.594200
H      1.947800   -0.250700    0.750100
H      0.752000   -0.154200    2.054100
H      0.880100   -2.555900    0.112400
