17
gdb_11430
C     -0.417400    0.987700   -0.084900
O      0.150200   -0.296400    0.044800
C      0.950100   -0.464600    1.198200
C      0.111600   -0.734300    2.462800
O     -0.128200   -2.146600    2.479600
C      0.776800   -2.799400    1.685100
N      0.821500   -4.049400    1.525100
C      1.705300   -1.786100    1.052600
H      0.357400    1.769900   -0.110800
H     -0.966500    1.001200   -1.028900
H     -1.118900    1.226000    0.728500
H      1.612100    0.402500    1.331700
H      0.655200   -0.444500    3.371400
H     -0.855100   -0.225600    2.452700
H      0.093300   -4.506700    2.076600
H      1.924900   -2.028000    0.013600
H      2.647200   -1.759600    1.610500
