14
gdb_461
O      0.099100    1.410000   -0.035600
C      0.027400   -0.009500    0.004600
C      0.614300   -0.569100    1.326900
C     -0.612500   -0.749000    2.191600
C     -1.733400   -0.712800    1.469100
C     -1.443400   -0.502600    0.000400
H     -0.384100    1.740800    0.730500
H      0.583300   -0.343300   -0.874600
H      1.125000   -1.529400    1.168500
H      1.359000    0.121900    1.736700
H     -0.560900   -0.918400    3.261500
H     -2.736000   -0.848200    1.859400
H     -2.091400    0.233300   -0.487600
H     -1.553400   -1.442900   -0.558000
