22
gdb_11788
C      0.052000    1.528300    0.152700
C     -0.064200    0.013600   -0.061600
C      0.685900   -0.503200   -1.273700
C      2.243400   -0.426300   -1.397900
C      2.024200   -1.554100   -2.444400
C      0.861900   -2.033600   -1.531900
C      1.264900   -0.811800   -3.560900
C      0.249700   -0.015300   -2.677200
H      1.098800    1.833700    0.257300
H     -0.374800    2.088900   -0.685000
H     -0.476000    1.837300    1.060100
H      0.305300   -0.505300    0.832600
H     -1.124100   -0.261500   -0.154600
H      2.693300    0.512600   -1.737100
H      2.749000   -0.779800   -0.495000
H      2.831600   -2.222300   -2.745900
H      1.211900   -2.564800   -0.642600
H      0.031500   -2.579100   -1.993000
H      1.918600   -0.157600   -4.145600
H      0.771400   -1.498400   -4.255300
H     -0.792500   -0.273700   -2.891500
H      0.354700    1.067100   -2.793700
