14
gdb_3582
O      0.109600    1.430900   -0.055800
C     -0.058800    0.062100    0.034900
C     -0.434300   -0.757100    1.247000
C     -1.620400   -0.185000    2.064000
N     -2.035000    1.128800    1.484500
C     -2.481800   -0.158300    0.870000
C     -1.344700   -0.728700   -0.014900
H     -0.616000    1.803200    0.476000
H      0.720300   -0.438600   -0.538500
H      0.171900   -1.574000    1.619800
H     -1.849000   -0.424600    3.093900
H     -2.806200    1.482200    2.048900
H     -3.536100   -0.372200    0.755500
H     -1.524400   -1.521100   -0.731600
