14
gdb_16831
O     -0.124900    1.458600    0.080300
C      0.006600    0.054500    0.011500
C      0.723500   -0.606300    1.214900
C      0.045800   -1.974100    1.364100
O      0.544100   -2.995400    1.758300
C     -1.353000   -1.823200    0.815600
O     -1.971600   -0.619100    1.304800
C     -1.374700   -0.581700    0.015700
H      0.752800    1.848700    0.020700
H      0.507600   -0.247600   -0.922800
H      1.801900   -0.719300    1.093300
H      0.527000   -0.011300    2.112500
H     -1.997500   -2.680500    0.651400
H     -2.053500   -0.437400   -0.820000
