16
gdb_9104
C      0.055400    1.441600   -0.123700
N      0.016400   -0.005600   -0.100800
C     -1.076500   -0.621400    0.046600
C     -2.478600   -0.089600    0.219000
O     -1.087800   -1.985100    0.065100
C      0.186300   -2.600100   -0.089700
C     -0.006800   -4.049800   -0.045600
N     -0.117000   -5.198600   -0.016100
H      0.717300    1.798300    0.673800
H      0.494400    1.776700   -1.070400
H     -0.917600    1.936400   -0.005400
H     -2.768700    0.520200   -0.641200
H     -3.181600   -0.916100    0.318300
H     -2.545500    0.540800    1.110200
H      0.646700   -2.307300   -1.039500
H      0.870100   -2.283900    0.705500
