21
gdb_7345
C      0.014300    1.578300    0.054800
C      0.024300    0.048700    0.005200
C     -1.386700   -0.544200    0.018900
C     -1.369200   -2.074200   -0.031100
O     -0.313300   -2.686100   -0.075400
N     -2.580400   -2.725300   -0.023900
C     -2.601700   -4.177400   -0.071000
C     -3.880700   -2.089900    0.026000
H      1.032400    1.979300    0.044200
H     -0.518400    2.004300   -0.803300
H     -0.477500    1.947300    0.962400
H      0.548000   -0.299800   -0.890300
H      0.588500   -0.356000    0.851100
H     -1.921700   -0.212600    0.918600
H     -1.962500   -0.155900   -0.831700
H     -3.103700   -4.586100    0.815500
H     -3.142600   -4.528000   -0.959600
H     -1.574100   -4.534100   -0.105300
H     -4.478200   -2.356300   -0.856800
H     -4.439300   -2.416500    0.913900
H     -3.794300   -1.006500    0.061000
