16
gdb_11664
O      0.012700    1.391900    0.040700
C      0.004400   -0.018900   -0.112400
C     -1.399400   -0.556400   -0.061000
C     -2.598200   -0.311700   -1.050000
C     -3.246400   -1.177600    0.086500
C     -1.929600   -2.031300    0.036700
C     -2.448500   -0.264400    1.022900
O     -2.551700    0.370500    2.030300
H     -0.390500    1.588900    0.894400
H      0.474600   -0.227200   -1.079400
H      0.613300   -0.516500    0.659700
H     -2.948500    0.713600   -1.174700
H     -2.498800   -0.832000   -2.005900
H     -4.271200   -1.534300    0.152100
H     -1.811100   -2.614900   -0.879600
H     -1.664400   -2.608600    0.924700
