18
gdb_12517
C     -0.325600    1.427000    0.064100
C      0.108600   -0.018800    0.035200
C      0.025500   -0.737900   -1.086700
C      0.309800   -2.196800   -1.334800
O      1.284100   -2.829700   -0.528700
C      1.046300   -2.792600    0.846900
O      1.461100   -1.598400    1.444100
C      0.542400   -0.528300    1.395100
H      0.517300    2.088900    0.300400
H     -0.749500    1.740600   -0.892500
H     -1.082200    1.597700    0.841500
H     -0.367200   -0.234800   -1.970200
H     -0.644600   -2.753900   -1.269100
H      0.666800   -2.321300   -2.362600
H     -0.021300   -2.985600    1.065300
H      1.665500   -3.580800    1.282500
H      1.025900    0.285800    1.946200
H     -0.370100   -0.788500    1.965400
