15
gdb_21038
C      0.118400    1.327000    0.015900
N     -0.026400   -0.107700   -0.004700
N      0.107600   -0.819100   -1.128900
C      0.080400   -2.081200   -0.711200
N      0.223000   -3.191400   -1.548300
C     -0.053900   -2.086100    0.695400
N     -0.199100   -3.201000    1.525000
N     -0.108700   -0.827400    1.119400
H      1.167400    1.625500    0.131300
H     -0.265300    1.726200   -0.923700
H     -0.458700    1.720000    0.853800
H     -0.496800   -3.886400   -1.382500
H      0.210100   -2.917300   -2.523200
H      0.504300   -3.906500    1.336800
H     -0.164600   -2.937500    2.502300
