13
gdb_20621
C     -0.007800    1.532800    0.075300
C      0.014700    0.040300    0.030500
C      0.003100   -0.779400   -1.067400
O      0.032300   -2.079900   -0.679400
N      0.064000   -2.134200    0.700800
C      0.053700   -0.888200    1.106500
C     -0.032400   -0.498300   -2.445800
C     -0.063500   -0.235100   -3.620100
H      0.883500    1.931500    0.571800
H     -0.045300    1.947700   -0.934700
H     -0.879300    1.903100    0.625900
H      0.074100   -0.682000    2.168100
H     -0.091600   -0.010600   -4.658100
