15
gdb_20968
C     -0.079800    1.424500    0.035200
N      0.193300   -0.000900   -0.007300
C      0.080800   -0.748500    1.237000
C      0.069000   -0.640500   -1.195500
C     -0.113700   -0.155600   -2.482100
N     -0.112500   -1.239600   -3.304100
N      0.033800   -2.318300   -2.703800
O      0.157700   -1.957100   -1.234800
H      0.343200    1.838600    0.953700
H      0.399500    1.922300   -0.811400
H     -1.155800    1.651000    0.013800
H     -0.962200   -0.841400    1.572900
H      0.491800   -1.748100    1.100500
H      0.650900   -0.233500    2.015200
H     -0.245200    0.845900   -2.848000
