10
gdb_21975
O     -0.074700   -0.002000    0.003800
N     -0.040600    1.215200    0.006900
O      0.968700    1.915300    0.002900
C     -1.296700    1.931600    0.017000
C     -1.444400    3.280700    0.021900
O     -2.776200    3.524200    0.031000
C     -3.354700    2.290800    0.031100
N     -2.520300    1.306700    0.022800
H     -0.769400    4.116900    0.020100
H     -4.432300    2.261400    0.037900
