14
gdb_3718
C      0.094800    1.551400    0.144100
C     -0.089700    0.039000   -0.065400
C      0.644500   -0.487500   -1.262100
C      0.151300   -0.954700   -2.439900
O      1.140400   -1.322000   -3.269800
N      2.358800   -1.099500   -2.638300
C      2.052900   -0.609700   -1.463600
H      1.150700    1.806600    0.279000
H     -0.274200    2.113500   -0.719100
H     -0.448900    1.889500    1.031400
H      0.246300   -0.493100    0.833000
H     -1.156000   -0.188300   -0.171700
H     -0.851300   -1.085000   -2.818100
H      2.852400   -0.356700   -0.780200
