17
gdb_8124
C     -0.057900    1.515200    0.032600
C      0.041800    0.008900   -0.001700
C     -0.813500   -0.817500    0.942300
C      0.689300   -0.776000    1.117600
N      1.443700   -1.826900    0.500400
C      1.280900   -1.907300   -0.865300
O      1.685900   -2.799200   -1.574800
C      0.479900   -0.665600   -1.295400
H      0.871200    1.981700   -0.314200
H     -0.869800    1.871700   -0.611800
H     -0.257300    1.878700    1.045700
H     -1.422000   -0.268500    1.653800
H     -1.252100   -1.746700    0.591300
H      1.141900   -0.291300    1.975700
H      1.757400   -2.642900    1.003700
H     -0.344000   -0.977100   -1.943700
H      1.128600   -0.012600   -1.890300
