15
gdb_1667
C      0.024800    1.340400   -0.036400
O      0.018100   -0.095000   -0.091500
C      0.656400   -0.637400   -1.132800
O      1.220500   -0.003700   -1.995300
C      0.603700   -2.161100   -1.127600
C     -0.839300   -2.672400   -1.230800
O      1.388100   -2.651900   -2.186100
H      1.049400    1.715700    0.018500
H     -0.459200    1.759500   -0.921800
H     -0.529000    1.603800    0.864200
H      1.027000   -2.493600   -0.167000
H     -1.435100   -2.342800   -0.375900
H     -1.305200   -2.312500   -2.153100
H     -0.828100   -3.764600   -1.257900
H      1.699400   -1.871700   -2.668800
