20
gdb_11913
C     -0.118900    1.534200    0.001900
C      0.073200    0.019700    0.008200
C      0.900400   -0.532100   -1.171900
C      1.257800   -1.959700   -0.727000
C      1.472900   -1.831600    0.782500
C      1.712700   -2.985300    1.655100
O      2.784800   -2.111700    1.291000
C      0.824100   -0.522900    1.244700
H      0.848200    2.049800    0.029400
H     -0.648200    1.864400   -0.898300
H     -0.698400    1.868000    0.869300
H     -0.916200   -0.458400   -0.028300
H      0.361700   -0.495600   -2.123200
H      1.813700    0.066000   -1.288300
H      0.416500   -2.635100   -0.926000
H      2.142600   -2.376500   -1.214100
H      1.411000   -2.946500    2.701900
H      1.760700   -3.988100    1.228800
H      1.625100    0.167800    1.535100
H      0.175100   -0.651300    2.115800
