14
gdb_579
O     -0.299300    0.077800   -0.123000
C      0.034700    1.232700   -0.058700
C      1.436400    1.746800   -0.316900
C      1.447300    2.891700   -1.312500
C      1.151200    4.303500   -0.863000
C      2.548100    3.921200   -1.282000
H     -0.701000    2.029500    0.200000
H      1.835600    2.103600    0.644100
H      2.058000    0.908100   -0.646200
H      1.079500    2.623300   -2.299300
H      0.571100    4.942700   -1.518700
H      0.969700    4.473800    0.193300
H      3.304100    3.829600   -0.509100
H      2.923900    4.296600   -2.227000
