13
gdb_9990
O     -0.496700    0.618400    0.846800
C      0.096600    0.928700   -0.152000
C      1.351900    1.783700   -0.146800
C      1.315300    2.936900   -1.194100
C      2.499900    3.787400   -1.083800
C      3.474600    4.476100   -0.961400
C      1.177400    2.405800   -2.561900
N      1.055900    1.968900   -3.624100
H     -0.239200    0.588000   -1.155600
H      1.491400    2.204600    0.850600
H      2.210500    1.139800   -0.373500
H      0.424400    3.549900   -0.998200
H      4.335800    5.091000   -0.864700
