17
gdb_11906
O      0.030100    1.449600    0.065500
C      0.079900    0.029500    0.046200
C     -1.316200   -0.657700    0.066400
C     -1.208800   -1.817500   -0.927800
C     -1.666300   -3.199100   -0.604500
N     -2.379600   -2.395700   -1.612200
C      0.018900   -1.541900   -1.721200
C      0.731900   -0.548000   -1.191800
H     -0.357000    1.733500   -0.770600
H      0.654900   -0.226600    0.944500
H     -1.623500   -0.968900    1.067800
H     -2.052600    0.072600   -0.291700
H     -1.133500   -4.060000   -1.000500
H     -2.129800   -3.361900    0.365600
H     -3.231800   -2.013800   -1.207500
H      0.271900   -2.125300   -2.599000
H      1.681300   -0.172800   -1.556700
