12
gdb_20398
C      0.042000    1.440100   -0.091100
C      1.569300    1.656600    0.074000
C      1.939500    0.329800    0.670800
C      0.845700   -0.639400    0.559300
O     -0.215400    0.032500    0.011100
O      0.808000   -1.801600    0.848600
N      4.104700   -0.294500    1.577100
N      3.093500   -0.001600    1.154200
H     -0.517800    1.950500    0.699400
H     -0.327400    1.779100   -1.060700
H      2.057800    1.830900   -0.892000
H      1.786600    2.512100    0.719500
