15
gdb_13052
O     -0.622900    0.570400    0.672900
C      0.135100    0.881600   -0.209700
C      1.305300    1.833900   -0.020700
C      1.333400    2.926500   -1.091300
C      2.610800    3.817200   -1.195500
N      2.776300    3.303300   -2.557800
C      1.696000    2.459100   -2.529300
O      1.250400    1.663200   -3.313300
H      0.027900    0.483100   -1.240200
H      1.249500    2.255300    0.987500
H      2.227200    1.237800   -0.089700
H      0.411200    3.514100   -1.074700
H      2.438400    4.896000   -1.138100
H      3.417100    3.536000   -0.510200
H      3.492900    3.447800   -3.253500
