13
gdb_21803
O     -0.412300    1.128200    1.078300
C      0.042300    1.251500   -0.027000
C      1.470200    1.698000   -0.323400
C      1.493800    2.855600   -1.275000
N      1.822300    2.667700   -2.533200
O      1.712300    3.911300   -3.143700
C      1.317900    4.809500   -2.230700
C      1.155300    4.218200   -1.021600
H     -0.562100    1.038800   -0.936500
H      1.960800    1.940200    0.622500
H      1.992100    0.855400   -0.792600
H      1.198900    5.821000   -2.587400
H      0.848400    4.668300   -0.092300
