14
gdb_21668
N      0.098000    1.347500   -0.093200
C      0.083900   -0.035300   -0.051500
N     -1.027300   -0.768900   -0.029100
N     -0.552500   -2.019600    0.066400
N      0.760700   -2.154300    0.091100
C      1.206100   -0.898200    0.026900
C      2.648700   -0.515500    0.016100
O      2.937200    0.419400   -1.029500
H      0.916600    1.706300   -0.567400
H     -0.762100    1.752100   -0.435700
H     -1.169500   -2.812500    0.108500
H      2.922700    0.009000    0.938100
H      3.271500   -1.416400   -0.053700
H      2.742300   -0.019300   -1.864900
