16
gdb_7759
C      0.177500    1.488300   -0.158200
C     -0.032700   -0.000300    0.131400
O      0.228400   -0.718400   -1.092200
C      1.145800   -1.698400   -1.247000
O      1.273500   -2.208700   -2.326700
C      1.985600   -2.123700   -0.052400
C      1.674500   -1.429000    1.235500
C      0.758100   -0.473400    1.309500
H      1.232500    1.692500   -0.361800
H     -0.413800    1.787300   -1.027100
H     -0.133900    2.089600    0.701400
H     -1.101600   -0.164500    0.330200
H      1.869900   -3.210800    0.040600
H      3.035100   -1.978800   -0.340300
H      2.227700   -1.738300    2.117900
H      0.535100    0.025900    2.248000
