18
gdb_9238
C     -0.102000    1.544700    0.058600
C      0.014600    0.019100    0.004200
C      0.770800   -0.509400   -1.242500
C      2.251700   -0.074700   -1.277500
C      0.662700   -1.962500   -1.322600
C      0.574400   -3.169100   -1.376300
C      0.478600   -4.525400   -1.435000
C      0.392600   -5.728900   -1.488100
H      0.873400    2.030800    0.153300
H     -0.585800    1.937800   -0.842700
H     -0.705200    1.851700    0.918300
H      0.519900   -0.354600    0.902900
H     -0.987200   -0.423300    0.008100
H      0.275200   -0.090200   -2.131200
H      2.752500   -0.478000   -2.161100
H      2.334800    1.014800   -1.305900
H      2.780300   -0.440300   -0.391700
H      0.318700   -6.786800   -1.533600
