18
gdb_8229
N      0.307000    1.317700   -0.063300
C      0.208300   -0.071900   -0.100500
O      1.180100   -0.792100   -0.233400
N     -1.078900   -0.539200    0.053200
C     -1.366400   -1.942400    0.198800
C     -1.922600   -2.491200    1.543900
C     -2.807000   -3.463300    0.716000
C     -2.613500   -2.531800   -0.512000
H      1.203200    1.638800   -0.398200
H     -0.471400    1.847200   -0.428000
H     -1.777600    0.109400    0.381800
H     -0.456400   -2.470500   -0.088900
H     -1.209500   -2.906800    2.259300
H     -2.532400   -1.736700    2.053900
H     -2.318600   -4.430700    0.571400
H     -3.827400   -3.637100    1.062200
H     -3.415900   -1.788400   -0.576100
H     -2.474900   -2.981400   -1.498000
