16
gdb_1734
C     -0.006200    1.572800   -0.237800
C     -0.028000    0.067700   -0.076400
C     -1.336100   -0.518600    0.457500
C     -1.736100    0.034200    1.747800
C     -2.057700    0.503500    2.806700
C      0.790600   -0.766300   -0.993000
N      1.173600   -0.615600    0.425200
H      0.949300    1.908300   -0.653500
H     -0.801800    1.908600   -0.912700
H     -0.159200    2.067400    0.726500
H     -2.133700   -0.344100   -0.277400
H     -1.216800   -1.603700    0.546600
H     -2.344700    0.904800    3.746800
H      0.461200   -1.764000   -1.272200
H      1.378900   -0.258700   -1.753300
H      1.942000    0.045400    0.509900
