20
gdb_13712
C      0.173500    1.465800   -0.310700
C     -0.004600    0.022300    0.085200
O      1.175100   -0.779300    0.221400
C      0.370000   -0.556400    1.387000
C      1.001400    0.197200    2.532900
C      1.996800   -0.676500    3.307600
C      2.644800    0.059300    4.472300
O      3.522500   -0.843600    5.126700
H      0.982400    1.946100    0.242900
H      0.408700    1.535500   -1.378000
H     -0.752000    2.025700   -0.136300
H     -0.809300   -0.486300   -0.451700
H     -0.185200   -1.445100    1.700500
H      1.509900    1.091200    2.158400
H      0.203200    0.540500    3.205900
H      1.492200   -1.568800    3.698200
H      2.780700   -1.029200    2.628700
H      3.187500    0.943200    4.097800
H      1.864900    0.426800    5.160600
H      3.949000   -0.377200    5.851300
