15
gdb_15106
N      0.160800   -1.142600   -0.619300
C      0.169400   -0.115900   -0.091300
C      0.164300    1.190400    0.583500
C      1.423600    1.916300    0.445200
C      2.462400    2.514700    0.333700
C      3.700300    3.225000    0.206300
C      4.504700    3.128800   -1.081700
C      3.809400    4.411300   -0.740500
H     -0.670700    1.777800    0.179400
H     -0.068000    1.024300    1.643500
H      4.280700    3.295200    1.121500
H      5.583100    3.079000   -0.984700
H      4.091100    2.518200   -1.875100
H      2.921700    4.675800   -1.302300
H      4.404400    5.253800   -0.407100
