20
gdb_7141
C     -0.302200    1.404500   -0.008200
C      0.475900    0.095700    0.113200
N      0.821500   -0.448700   -1.191400
C      0.818700   -1.814000   -1.409400
O      0.373100   -2.617300   -0.606400
N      1.368400   -2.183200   -2.623100
C      1.256800   -3.552400   -3.103200
C      2.515900   -3.995900   -3.845500
H      0.283800    2.173700   -0.524800
H     -1.229900    1.254800   -0.568000
H     -0.552900    1.792700    0.983800
H      1.376300    0.250300    0.726500
H     -0.118600   -0.671900    0.611900
H      1.445600    0.106500   -1.756700
H      1.449700   -1.466900   -3.328500
H      1.082600   -4.168100   -2.219000
H      0.376900   -3.671300   -3.753100
H      2.705900   -3.368800   -4.724400
H      3.392400   -3.937400   -3.193700
H      2.409700   -5.027900   -4.194100
