19
gdb_6510
C     -0.048700    1.531500   -0.047600
C     -0.037500    0.016200    0.033900
C     -1.253700   -0.626400   -0.604400
N      1.278900   -0.610800   -0.170600
C      0.655900   -0.684800    1.181500
C      1.387200    0.064400    2.285100
C      0.138900   -1.961300    1.614200
C     -0.251200   -3.025400    2.019900
H      0.891600    1.967900    0.288800
H     -0.203200    1.843000   -1.086900
H     -0.866200    1.948600    0.550400
H     -1.274500   -0.400800   -1.677000
H     -1.256600   -1.710400   -0.474900
H     -2.178100   -0.233300   -0.167200
H      1.171800   -1.507600   -0.640600
H      1.851500    0.973500    1.903000
H      0.701200    0.326600    3.096600
H      2.176500   -0.568700    2.701300
H     -0.603800   -3.964200    2.369000
