13
gdb_21529
N     -0.075500    1.367100   -0.137400
C     -0.084300   -0.013700   -0.050000
C     -1.126900   -0.890000    0.057500
C     -2.604600   -0.683800    0.019600
O     -2.957500    0.328100   -0.920500
O     -0.605200   -2.125000    0.181400
N      0.792400   -1.988400    0.149800
N      1.067900   -0.758700    0.012500
H      0.757100    1.731400   -0.579500
H     -0.925300    1.734200   -0.544800
H     -3.107300   -1.638100   -0.184900
H     -2.974100   -0.319000    0.984700
H     -2.743300   -0.004300   -1.799300
