18
gdb_9641
C     -0.320400    1.441700    0.079900
C      0.245300    0.030400   -0.116700
C      0.890300   -0.510600    1.142900
C      0.062500   -1.159500    2.226700
C      1.006000   -2.001900    1.377300
O      0.438400   -2.806900    0.376100
C      2.200300   -2.534200    1.982300
C      3.181900   -3.008000    2.491900
H      0.464300    2.148500    0.371300
H     -0.777200    1.813300   -0.842600
H     -1.084800    1.455000    0.864000
H     -0.545300   -0.653200   -0.438700
H      0.988100    0.040000   -0.924000
H      1.746700    0.059200    1.493500
H      0.315300   -0.989300    3.266700
H     -0.992600   -1.308500    2.020400
H      0.181400   -3.640900    0.785100
H      4.056800   -3.417800    2.932400
