15
gdb_4867
N      0.235500    1.278700   -0.037000
C     -0.032000   -0.082600   -0.028000
C     -1.173500   -0.817100    0.104800
C     -0.746600   -2.187800    0.131700
C      0.604300   -2.196000    0.018500
C      1.649900   -3.246400   -0.054900
O      2.228200   -3.402300   -1.351700
O      1.055200   -0.886900   -0.078100
H      1.052800    1.514200   -0.585600
H     -0.560100    1.831500   -0.324300
H     -2.179800   -0.437200    0.175300
H     -1.376100   -3.060200    0.219100
H      2.435800   -3.049700    0.691500
H      1.193700   -4.208700    0.191900
H      2.576200   -2.542200   -1.608400
