17
gdb_13876
C      0.061200    1.535400   -0.087100
C     -0.001300    0.016300    0.077700
O      0.611900   -0.410600    1.284300
C     -1.431200   -0.526800   -0.012400
C     -1.562600   -2.064400    0.134100
N     -2.490100   -2.271300    1.261200
C     -2.736100   -1.118600    1.717000
O     -2.187800   -0.020900    1.129700
H      1.093900    1.878600    0.013100
H     -0.314600    1.842300   -1.068900
H     -0.547900    2.030100    0.676400
H      0.577500   -0.460700   -0.723500
H      0.090600   -0.038800    2.006000
H     -1.922000   -0.148700   -0.916000
H     -1.956400   -2.539700   -0.768400
H     -0.598600   -2.526100    0.372200
H     -3.369200   -0.896500    2.569200
