18
gdb_5914
C      0.210300    1.658800    0.272000
C      0.097800    0.134700    0.063700
C      0.793500   -0.606500    1.223600
C     -1.378700   -0.308100   -0.085700
C     -2.196100   -0.025800    1.087400
C     -2.859100    0.212800    2.061900
C      0.850500   -0.208400   -1.214300
O      0.378300   -0.738500   -2.186400
H      1.257700    1.973400    0.327700
H     -0.267400    2.208900   -0.545200
H     -0.281400    1.943000    1.206100
H      0.309400   -0.351900    2.170100
H      0.736800   -1.692200    1.093500
H      1.849800   -0.326700    1.293900
H     -1.808200    0.183900   -0.965800
H     -1.405400   -1.380800   -0.308600
H     -3.460600    0.415600    2.913100
H      1.927900    0.080800   -1.186400
