12
gdb_16276
O     -0.229900   -0.006800    0.185400
C     -0.038900    1.180000    0.130400
C      1.302200    1.790900   -0.016500
O      1.449800    3.187800    0.342500
C      1.756700    2.845800   -0.988600
C      3.204100    2.334700   -1.006100
C      2.735200    1.231000   -0.011000
O      3.249200    0.266300    0.457600
H     -0.859900    1.928400    0.172600
H      1.175400    3.295400   -1.784800
H      3.519300    1.882800   -1.951200
H      3.955500    3.046500   -0.659700
