11
gdb_21567
N     -0.046600    1.491400    0.143100
C     -0.212400    0.164100   -0.167200
C     -1.575800   -0.351400    0.080100
C     -1.838500   -1.618100   -0.192800
O     -2.083100   -2.720500   -0.433600
N      1.319300   -3.395000    0.396900
N      2.394500   -3.388200    0.171700
O      0.700300   -0.528200   -0.582800
H      0.822500    1.905500   -0.154200
H     -0.837800    2.104000    0.245600
H     -2.380000    0.245200    0.491400
