20
gdb_16418
C     -0.242500    1.529500    0.108600
C      0.022400    0.023500   -0.002900
C      0.838400   -0.359400   -1.274700
C      2.362700   -0.465900   -1.006500
C      2.600800   -0.875100    0.445900
C      1.502800   -1.820300    0.981700
C      0.780000   -0.481300    1.233300
O      2.072200    0.192000    1.287500
H      0.699900    2.078200    0.188300
H     -0.787400    1.897500   -0.766400
H     -0.840000    1.761900    0.997500
H     -0.943700   -0.497800   -0.043900
H      0.482200   -1.328300   -1.639400
H      0.640500    0.354100   -2.080700
H      2.820400   -1.183800   -1.697500
H      2.863500    0.495900   -1.161300
H      3.648200   -1.095500    0.670600
H      1.050900   -2.549900    0.306300
H      1.801900   -2.301500    1.914000
H      0.212100   -0.349100    2.159800
