17
gdb_17366
C     -0.080200    1.420600   -0.135200
C     -0.009000   -0.093600   -0.012800
O      1.025400   -0.726500   -0.121500
N     -1.197600   -0.707300    0.269200
C     -2.608600   -0.302600    0.101000
C     -2.972500   -1.788300   -0.043900
C     -2.162500   -2.424300   -1.148700
C     -1.499700   -2.124300    0.164300
H      0.925400    1.825600   -0.021500
H     -0.456400    1.700700   -1.125800
H     -0.745800    1.864200    0.610900
H     -3.018700    0.165000    1.002800
H     -2.811600    0.338700   -0.764700
H     -3.844200   -2.253900    0.392800
H     -2.382600   -3.472200   -1.327400
H     -1.889800   -1.859300   -2.036100
H     -1.010000   -2.854500    0.794300
