17
gdb_4490
C      0.114200    1.454500   -0.086700
C     -0.066600   -0.020200   -0.034600
C     -1.164000   -0.822100   -0.007800
C     -0.683700   -2.176900    0.035300
N     -1.497500   -3.318800    0.151600
C      0.679000   -2.101600    0.029300
C      1.764600   -3.114300    0.075400
O      1.061200   -0.777700   -0.005400
H      0.665800    1.762400   -0.982900
H     -0.859800    1.948600   -0.099000
H      0.673700    1.822200    0.781200
H     -2.194500   -0.500200   -0.009500
H     -2.306900   -3.273200   -0.455800
H     -0.994700   -4.175300   -0.044900
H      2.526200   -2.917200   -0.687700
H      2.275300   -3.145300    1.046800
H      1.359600   -4.113900   -0.111600
