16
gdb_17089
C     -0.068500   -1.187000   -0.059100
C     -0.012100    0.011900    0.002400
C      0.062700    1.467000    0.043200
O     -0.414300    1.996800    1.311200
C      0.733200    2.737300    1.768900
C      1.184300    3.508800    0.505200
C      1.494100    2.052700    0.036200
C      1.914300    1.771300    1.512900
H     -0.125500   -2.246500   -0.106100
H     -0.548100    1.885000   -0.767100
H      0.505500    3.197900    2.728400
H      0.422700    4.080600   -0.030800
H      2.088900    4.100700    0.653300
H      2.118900    1.814900   -0.822600
H      2.886700    2.201400    1.757500
H      1.822700    0.752000    1.891600
