18
gdb_14178
C     -0.072600    1.585500    0.042200
C      0.023500    0.081900   -0.027800
O     -1.116400   -0.604900    0.429700
C      0.670800   -0.668400   -1.173100
C      1.629900    0.061200   -2.112200
C      2.921400    0.153400   -1.269900
O      2.508600    0.116300    0.101900
C      1.332800   -0.648100    0.186100
H      0.876900    2.061200   -0.208000
H     -0.852100    1.960200   -0.629000
H     -0.330200    1.894600    1.062700
H     -1.207800   -0.423900    1.372400
H      0.145200   -1.550000   -1.518600
H      1.788300   -0.505600   -3.033400
H      1.264400    1.053000   -2.396100
H      3.585100   -0.697700   -1.484300
H      3.485500    1.077900   -1.421200
H      1.377300   -1.514400    0.840600
