20
gdb_14019
C      0.278600    1.515100    0.216200
C     -0.190500    0.102600   -0.150600
C      0.550400   -0.476000   -1.338700
C      1.883400   -1.172200   -1.148400
C      0.666400   -1.956900   -1.534600
C     -0.028900   -3.088700   -0.782200
O     -0.239600   -3.807400   -2.017700
C      0.419100   -2.781900   -2.793500
H      1.344400    1.522900    0.466800
H      0.130400    2.208700   -0.618800
H     -0.274300    1.906100    1.076000
H     -0.061400   -0.561800    0.713700
H     -1.267800    0.117700   -0.362600
H      0.454400    0.107000   -2.253900
H      2.660400   -1.029400   -1.893200
H      2.254900   -1.283300   -0.133000
H      0.597300   -3.655400   -0.080100
H     -0.977200   -2.834100   -0.290100
H     -0.252900   -2.335700   -3.539400
H      1.315300   -3.163700   -3.301300
