12
gdb_5364
O     -0.087300   -0.018700   -0.002100
C      0.000400    1.180900    0.006300
C      1.284200    1.944900   -0.001500
N      2.441400    1.266800   -0.019700
C      3.546700    2.000200   -0.025700
C      3.512000    3.400000   -0.013800
N      2.367700    4.080600    0.004200
C      1.255900    3.340600    0.010200
H     -0.902600    1.832100    0.021100
H      4.495500    1.469500   -0.040400
H      4.432200    3.978500   -0.018900
H      0.308800    3.875700    0.024700
