16
gdb_14388
C      0.015700    1.556100    0.035500
C      0.052900    0.039400   -0.012000
O     -1.239200   -0.534700    0.119100
C      0.767800   -0.672800   -1.158400
C      2.231500   -0.783900   -0.700600
O      2.364200   -0.107900    0.555300
C      1.085300   -0.708800    0.900600
C      1.244200   -1.788300   -0.230500
H      1.028200    1.961900   -0.008400
H     -0.569000    1.950700   -0.801400
H     -0.449800    1.905300    0.966600
H     -1.650600   -0.145300    0.898500
H      0.461200   -0.739900   -2.194500
H      3.084500   -0.839100   -1.363700
H      0.929100   -0.848800    1.969500
H      1.174800   -2.865000   -0.275000
