18
gdb_12023
C      0.349500    1.465200   -0.066800
C      0.031500    0.001000    0.138200
C     -1.158700   -0.516800   -0.642500
O      1.167100   -0.892900    0.131100
C      0.448300   -0.737500    1.350100
C      1.184200   -0.191700    2.537300
C      2.625900   -0.430500    2.707300
O      2.124400    0.862700    2.362300
H      1.264200    1.742900    0.453300
H      0.468500    1.670600   -1.136700
H     -0.473500    2.089000    0.299300
H     -1.001900   -0.365000   -1.716000
H     -1.311100   -1.584600   -0.466900
H     -2.071300    0.019000   -0.359700
H     -0.160100   -1.604200    1.628000
H      0.567400   -0.099900    3.433200
H      3.048500   -0.516000    3.706700
H      3.163100   -0.939600    1.910500
