17
gdb_8048
C     -0.018800    1.509100    0.034200
C      0.040100    0.003700    0.026000
C      0.520000   -0.969500   -1.075200
N      0.081500   -1.949900    0.026300
C      0.784500   -0.963500    0.979100
C     -1.147300   -1.005600    0.163800
C     -1.920300   -1.079500    1.384700
C     -2.594100   -1.113400    2.380600
H      0.983700    1.941300   -0.054500
H     -0.623000    1.884500   -0.798800
H     -0.464300    1.873200    0.965800
H     -0.069600   -1.047700   -1.993800
H      1.591600   -1.014700   -1.284600
H      1.874800   -1.005300    0.909200
H      0.445300   -1.036400    2.013700
H     -1.805100   -1.082200   -0.708400
H     -3.185100   -1.154700    3.262100
