12
gdb_5030
N      0.019600    1.375000    0.137200
C     -0.052600    0.007700    0.043900
C     -1.177600   -0.739000    0.012000
O     -1.123500   -2.108700   -0.019700
C      0.086900   -2.677500   -0.016900
N      1.221600   -2.089100   -0.005900
C      1.256000   -0.690900    0.007000
O      2.295000   -0.058600   -0.021600
H      0.943900    1.720600   -0.087600
H     -0.748700    1.922900   -0.215300
H     -2.195900   -0.375900    0.014300
H      0.003700   -3.760400   -0.029200
