12
gdb_4894
C     -0.044100    1.391900   -0.069600
O      0.487100    0.070100    0.139100
C      0.789700   -0.610600   -0.955000
C      0.539800   -1.862900   -1.330000
O      1.201400   -2.094900   -2.533800
C      1.830800   -0.943800   -2.890200
O      2.475700   -0.765100   -3.871200
O      1.590700   -0.005500   -1.911500
H      0.676600    2.019100   -0.599700
H     -0.981000    1.340300   -0.634400
H     -0.230200    1.795000    0.925400
H     -0.016100   -2.670900   -0.894000
