18
gdb_11115
C      0.008900    1.535900   -0.005600
C      0.035000    0.011500    0.073100
N     -1.304200   -0.545600    0.133900
C     -2.092500   -0.363400    1.367600
C     -2.673700   -1.791900    1.152800
C     -1.445000   -2.009100    0.221700
C     -2.830800   -2.656000    2.306200
N     -2.947000   -3.343300    3.228800
H      1.025200    1.934400   -0.073300
H     -0.556400    1.866900   -0.881400
H     -0.458600    1.970800    0.884300
H      0.522300   -0.399100   -0.819600
H      0.642300   -0.309000    0.943000
H     -1.477500   -0.314600    2.280500
H     -2.800500    0.469500    1.361500
H     -3.604000   -1.760500    0.582600
H     -1.618400   -2.523700   -0.727800
H     -0.619000   -2.501200    0.759000
