17
gdb_17090
N     -0.064600   -1.140900   -0.116800
C     -0.023900    0.013000   -0.051500
C      0.037000    1.467600    0.034600
C     -0.457300    2.049200    1.415900
C      0.819300    2.806900    1.825200
C      1.230100    3.498800    0.492900
C      1.484500    2.032500    0.042100
C      1.933600    1.767600    1.506900
H     -0.538900    1.878000   -0.800400
H     -1.322000    2.704800    1.287000
H     -0.726300    1.259400    2.120600
H      0.786000    3.347500    2.770700
H      0.477600    4.085300   -0.043400
H      2.157900    4.067300    0.581000
H      2.104900    1.780000   -0.816800
H      2.935700    2.153000    1.704300
H      1.832700    0.754000    1.904200
