18
gdb_15792
C      0.151400    1.544200   -0.054200
C     -0.006400    0.024600   -0.021900
O      0.630800   -0.555200   -1.170200
C     -0.103900   -0.709500   -2.288900
N      0.440800   -1.120700   -3.349600
C      0.625700   -0.591600    1.213000
C      1.081000   -1.999900    1.234300
N      2.061800   -0.895400    1.245600
H      1.210600    1.815600   -0.053400
H     -0.315100    1.966200   -0.949300
H     -0.322500    1.993500    0.823900
H     -1.075000   -0.236800   -0.038500
H     -1.164900   -0.458000   -2.151600
H     -0.253900   -1.201000   -4.089100
H      0.248400   -0.153100    2.135400
H      1.022300   -2.572100    2.155700
H      0.977900   -2.578200    0.321600
H      2.434800   -0.794900    0.303200
