15
gdb_11945
O     -0.156000    1.358000   -0.038900
C     -0.054100   -0.003600   -0.009400
C     -0.240300   -0.923500   -1.153300
C     -1.139400   -1.164100    0.045100
N     -0.355800   -1.860400    1.080900
C      0.585500   -0.692300    1.189000
C     -2.584600   -1.002400    0.002900
O     -3.186100   -0.455500   -0.899500
H     -0.354800    1.644500   -0.936800
H     -0.782800   -0.500700   -1.995100
H      0.496800   -1.686400   -1.395200
H     -0.894700   -1.960700    1.936800
H      1.644100   -0.959600    1.099900
H      0.432900   -0.102500    2.097600
H     -3.117900   -1.384100    0.904300
