15
gdb_12038
C     -0.065000    1.571600    0.014600
C      0.063300    0.057500    0.083300
O      1.085300   -0.477900   -0.810900
C      1.668000   -1.225700    0.268300
C      2.220400   -0.299600    1.297700
C      0.738700   -0.620700    1.291000
C     -1.227300   -0.587300   -0.220100
N     -2.248500   -1.082100   -0.437700
H      0.880600    2.042800    0.288600
H     -0.329700    1.878900   -1.000700
H     -0.847600    1.916500    0.696400
H      1.982100   -2.241800    0.066800
H      2.758700   -0.772100    2.113700
H      2.597400    0.674100    1.001600
H      0.213000   -1.062500    2.125000
