20
gdb_12688
C      0.135800    1.579000   -0.072500
C      0.008100    0.061000    0.064300
O      0.608100   -0.570500   -1.069500
C      1.541700   -1.551200   -0.643300
C      1.587900   -1.454200    0.859600
C      2.508300   -2.321600    1.656200
C      0.707500   -0.536500    1.266600
C      0.359600   -0.107200    2.656300
H      1.187800    1.879600   -0.047400
H     -0.294600    1.902700   -1.024300
H     -0.397400    2.092000    0.734600
H     -1.067700   -0.193800    0.086400
H      1.224300   -2.555000   -0.976400
H      2.522000   -1.359200   -1.109600
H      2.308800   -3.384900    1.470300
H      3.555200   -2.147900    1.376200
H      2.416500   -2.146500    2.730700
H      0.908500   -0.674700    3.411700
H      0.576600    0.956200    2.814900
H     -0.712600   -0.239300    2.851500
