17
gdb_8733
C      0.040700    1.562800    0.013000
C      0.020500    0.021200    0.023800
C      0.725600   -0.487700    1.198300
C      1.289700   -0.881100    2.183500
C     -1.435000   -0.548000   -0.028300
C     -2.244200   -0.053600   -1.243400
C     -1.406300   -2.015400   -0.025700
N     -1.402000   -3.170500   -0.059300
H      1.067800    1.918600    0.119600
H     -0.361800    1.961100   -0.921100
H     -0.542400    1.964800    0.847500
H      0.538900   -0.338700   -0.874900
H      1.794500   -1.249400    3.042300
H     -1.943300   -0.234100    0.891700
H     -1.723100   -0.282800   -2.177800
H     -3.220400   -0.543000   -1.272300
H     -2.405900    1.024500   -1.187600
