18
gdb_12496
O     -0.031200   -0.074000    0.184500
C     -0.013600    1.141600    0.075100
N     -1.168900    1.889300    0.198400
C     -1.493100    3.229800   -0.297100
C     -0.553800    3.750300   -1.390600
C      0.820300    4.193300   -0.859800
C      1.358200    3.228800    0.205800
N      1.159900    1.833200   -0.166300
H     -1.953800    1.278900    0.360800
H     -2.509700    3.179500   -0.701300
H     -1.527000    3.952400    0.532500
H     -0.428800    2.966700   -2.144500
H     -1.040300    4.594400   -1.890900
H      1.524600    4.260400   -1.696200
H      0.752300    5.195600   -0.419300
H      2.429200    3.389800    0.355700
H      0.873700    3.432900    1.170300
H      1.953800    1.216300   -0.101500
