11
gdb_20696
C     -0.011900    1.491400   -0.021900
C     -0.060700    0.003000    0.013400
N     -1.129600   -0.650900   -0.252900
C     -1.084000   -2.044300   -0.195300
O     -2.003900   -2.766000   -0.420000
O      0.138100   -2.618500    0.153200
N      1.279800   -1.825800    0.434300
N      1.180700   -0.599000    0.367100
H      0.751000    1.818100   -0.736900
H     -0.985000    1.895100   -0.297000
H      0.294800    1.873400    0.957900
