14
gdb_551
C     -0.397200   -1.171900   -0.473200
C     -0.173700   -0.021400   -0.201100
C      0.115000    1.353300    0.148800
C     -0.025200    1.807400    1.639500
C      1.241100    2.683100    1.450400
C      1.604100    1.829900    0.206900
H     -0.598800   -2.184900   -0.718300
H     -0.459500    2.029500   -0.494000
H     -0.959200    2.296700    1.923500
H      0.156600    0.968700    2.315800
H      0.986600    3.711200    1.177000
H      1.961500    2.711100    2.270200
H      2.264600    0.997700    0.462400
H      1.997600    2.337400   -0.676200
