15
gdb_960
C      0.114000    1.491100    0.014400
C     -0.058900    0.014600   -0.032200
C     -1.141200   -0.814900    0.024400
C     -2.585000   -0.440000    0.161000
C     -0.614600   -2.152000   -0.075300
C      0.730100   -2.029400   -0.183100
O      1.089600   -0.718800   -0.159100
H      0.740000    1.795700    0.861100
H      0.592200    1.868600   -0.896900
H     -0.855000    1.984100    0.116300
H     -3.175700   -0.800500   -0.689200
H     -3.028600   -0.873300    1.065000
H     -2.717800    0.643700    0.217100
H     -1.178700   -3.072400   -0.065800
H      1.538300   -2.735400   -0.280400
