18
gdb_16965
C     -0.243300    1.555200   -0.043700
C      0.030900    0.062200    0.019900
O      0.753900   -0.380400   -1.151900
C      1.821600   -1.176400   -0.637000
C      2.938700   -0.238800   -0.142400
C      2.292800    0.265500    1.185200
C      0.941600   -0.479200    1.145500
O      1.312600   -1.741100    0.556600
H      0.678100    2.135500   -0.137500
H     -0.869700    1.780800   -0.911200
H     -0.778000    1.886500    0.853300
H     -0.924200   -0.480300    0.059800
H      2.087600   -1.950800   -1.356300
H      3.867100   -0.787500    0.035000
H      3.132800    0.556800   -0.863900
H      2.865900   -0.056300    2.057100
H      2.188400    1.350500    1.233700
H      0.447800   -0.641200    2.102800
