16
gdb_16633
C     -0.070900    1.376000    0.056800
N     -0.026600   -0.054500    0.244000
C     -1.171500   -0.905500    0.136700
C     -1.355600   -1.684000   -1.154200
C     -0.613400   -2.298800    0.022200
N      0.805000   -2.124200    0.119700
C      1.151400   -0.772100    0.091300
O      2.266100   -0.315400   -0.043900
H      0.956100    1.742900    0.098300
H     -0.507000    1.647700   -0.914500
H     -0.658700    1.857200    0.846700
H     -2.022400   -0.662400    0.764000
H     -2.348100   -2.072000   -1.357200
H     -0.785900   -1.378800   -2.025500
H     -1.041500   -3.137800    0.558100
H      1.453500   -2.765500   -0.308000
