20
gdb_18264
C      0.085700    1.338600    0.108600
O     -0.162500   -0.030400   -0.104700
C      0.554800   -0.580800   -1.194900
C      2.070400   -0.777800   -0.921500
C      2.481400   -2.004300   -1.764100
C      1.214200   -2.844100   -1.872600
C      0.432400   -3.091700   -0.608200
C      0.032300   -1.964600   -1.528800
H      1.126300    1.537000    0.407000
H     -0.131400    1.937200   -0.791200
H     -0.574900    1.667000    0.915200
H      0.419400    0.071500   -2.075400
H      2.663700    0.108200   -1.159900
H      2.199700   -0.973100    0.147800
H      2.792800   -1.690600   -2.767600
H      3.324900   -2.547300   -1.323200
H      1.147700   -3.577600   -2.668700
H     -0.218100   -3.959100   -0.591800
H      0.874500   -2.856800    0.354000
H     -0.908800   -2.036800   -2.061400
