16
gdb_11758
O      0.019600    1.392900   -0.306000
C      0.046600    0.012800    0.020200
C     -1.323500   -0.523400    0.285900
C     -2.283400   -0.248600    1.447700
C     -2.942300   -1.656300    1.161100
O     -4.292200   -1.704600    0.800500
C     -1.924200   -1.843700    0.019900
O     -2.164900   -0.743500   -0.874800
H     -0.521000    1.484500   -1.098500
H      0.518400   -0.586400   -0.772900
H      0.661900   -0.074100    0.921800
H     -1.793200   -0.203100    2.423300
H     -2.936500    0.617300    1.321900
H     -2.800000   -2.355900    1.988000
H     -4.369700   -1.183500   -0.009100
H     -1.512200   -2.748900   -0.413200
