16
gdb_9579
C     -0.096900    1.561200   -0.023400
C     -0.018200    0.053700    0.019600
C      1.292300   -0.660500   -0.247100
C      0.749900   -0.668700    1.156000
C      1.364800    0.093700    2.199900
C      1.876600    0.724000    3.087300
C     -1.239300   -0.676200   -0.413800
O     -2.257800   -0.148700   -0.783500
H      0.807700    2.014000    0.386900
H     -0.228400    1.903600   -1.053900
H     -0.954700    1.916800    0.553600
H      1.271500   -1.595600   -0.797400
H      2.149700   -0.029700   -0.449300
H      0.305900   -1.605900    1.482500
H      2.329500    1.279100    3.871100
H     -1.146800   -1.788300   -0.373100
