15
gdb_251
C     -0.032300    1.542300    0.006100
C      0.018000    0.010500    0.036400
C      0.790900   -0.505800    1.255100
C     -1.422700   -0.556500   -0.002900
C     -1.466400   -2.014000   -0.099400
N     -1.481500   -3.166900   -0.179600
H      0.978100    1.961900   -0.000200
H     -0.554900    1.911800   -0.882400
H     -0.549400    1.936200    0.889100
H      0.528300   -0.338300   -0.870100
H      1.817900   -0.128300    1.248900
H      0.319300   -0.172000    2.187200
H      0.832400   -1.598600    1.270600
H     -1.967900   -0.251200    0.899200
H     -1.968700   -0.139700   -0.857000
