13
gdb_21218
C     -0.044800    1.438400    0.029000
N     -0.087200   -0.020300   -0.040000
C      0.599400   -0.628700   -1.052300
N      1.177600   -0.007600   -2.036200
O      1.664000   -1.055500   -2.883900
C      1.369800   -2.274300   -2.354200
O      1.638100   -3.337600   -2.835300
N      0.708100   -1.992600   -1.161100
H      0.965100    1.826600    0.209900
H     -0.399300    1.846600   -0.919300
H     -0.711300    1.766300    0.828500
H     -0.015000   -0.490300    0.851000
H      0.240600   -2.694500   -0.614000
