14
gdb_18781
N     -0.063700    1.243800   -0.184900
C     -0.025500    0.000300   -0.017500
C     -1.088200   -1.081700    0.085000
O     -1.133200   -1.791800   -1.189900
C      0.062800   -2.543500   -0.878800
C      1.335100   -1.700900   -1.105100
N      1.078300   -0.937900    0.186100
C      0.054200   -2.009000    0.569900
H      0.883600    1.631600   -0.215800
H     -2.078000   -0.906500    0.505800
H      0.001200   -3.575800   -1.227000
H      2.255300   -2.284600   -1.003500
H      1.378500   -1.081900   -2.004500
H      0.151300   -2.536700    1.514200
