18
gdb_6730
C     -0.716200    1.009300   -0.299100
C      0.671300    0.506700    0.140500
C      1.346400   -0.269700   -0.893900
C      1.873300   -0.909700   -1.766300
C      2.508300   -1.688400   -2.815000
C      1.539500   -2.495000   -3.700600
C      2.208500   -3.321600   -4.786200
O      0.345400   -2.473700   -3.547100
H     -0.634100    1.657000   -1.176100
H     -1.365700    0.170300   -0.561600
H     -1.189400    1.577300    0.507600
H      1.298900    1.361500    0.424500
H      0.569200   -0.104900    1.046200
H      3.100500   -1.044400   -3.481700
H      3.235900   -2.397500   -2.393800
H      2.895600   -4.051100   -4.342500
H      1.449800   -3.842600   -5.370500
H      2.806100   -2.681400   -5.444700
