21
gdb_4013
C     -0.091400    1.570700    0.021200
C     -0.104600    0.040700   -0.024700
C      0.724500   -0.521300   -1.195200
C      0.761200   -2.028100   -1.232700
C      1.593500   -2.781100   -0.222400
C      2.952700   -3.212200   -0.805900
N      0.074500   -2.581000   -2.159700
O      0.162600   -3.987500   -2.115600
H      0.927300    1.955000    0.144900
H     -0.495100    1.997700   -0.903500
H     -0.693300    1.948400    0.853500
H      0.274200   -0.356600    0.925100
H     -1.135100   -0.321500   -0.120100
H      0.311200   -0.159700   -2.141700
H      1.753200   -0.140500   -1.120200
H      1.754500   -2.149500    0.657000
H      1.044200   -3.669400    0.101800
H      3.544800   -3.739800   -0.052000
H      2.804900   -3.879000   -1.658200
H      3.533100   -2.347500   -1.143900
H     -0.406700   -4.244400   -2.848000
