18
gdb_19107
C     -0.048000    1.619700    0.011100
C      0.036400    0.102500    0.017700
C      1.077400   -0.639700   -0.864000
C      2.484900   -0.256600   -0.343700
C      2.227000   -0.264400    1.167300
C      2.662500   -1.526500    0.457600
C      1.150000   -1.801700    0.198100
C      0.727300   -0.650200    1.187400
H      0.937200    2.066300    0.181500
H     -0.423900    1.993300   -0.948100
H     -0.721500    1.984400    0.794900
H     -0.951800   -0.345000   -0.153300
H      0.939000   -0.799300   -1.933100
H      3.238500    0.368600   -0.804000
H      2.784200    0.354800    1.857700
H      3.524500   -2.163900    0.601400
H      0.642500   -2.758400    0.106500
H      0.242300   -0.820200    2.148400
