16
gdb_14693
O     -0.058600    1.252100   -0.479500
C     -0.582900   -0.060900   -0.579200
C     -0.565100   -0.655300    0.833700
C     -1.084000   -2.016300    0.871100
C     -1.517200   -3.138600    0.872000
C     -2.041600   -4.505900    0.891500
C     -2.451700   -4.995400   -0.426700
C     -2.791400   -5.408400   -1.501600
H     -0.060200    1.645200   -1.356800
H     -1.614100   -0.061400   -0.962400
H      0.020100   -0.692300   -1.248400
H      0.465500   -0.626400    1.207900
H     -1.151800   -0.002000    1.490900
H     -1.284900   -5.185400    1.307800
H     -2.897600   -4.563000    1.578300
H     -3.090700   -5.769900   -2.453900
