15
gdb_14888
N      0.112500   -1.155400    0.057600
C      0.007700   -0.001800    0.029300
C     -0.063300    1.422200   -0.001800
C     -1.234800    2.072600    0.000700
C     -1.297000    3.571900    0.025300
C      0.066700    4.152400    0.408400
O      1.100900    3.534500   -0.340800
C      1.259200    2.171700   -0.027800
H     -2.165000    1.513000   -0.007700
H     -1.607500    3.944900   -0.960200
H     -2.064700    3.904200    0.735000
H      0.123400    5.220800    0.187100
H      0.242400    4.016400    1.487600
H      1.770200    2.041500    0.942300
H      1.912500    1.747600   -0.797100
