19
gdb_3215
C     -0.447200    1.540900    0.363100
C     -0.110800    0.061800    0.205500
C      0.284100   -0.462500   -1.184000
C      1.605600    0.100300   -1.627000
C      1.594500   -1.024200   -0.629500
C      1.246000   -0.519900    0.779600
C      2.235900    0.390600    1.498600
H      0.331800    2.190200   -0.047600
H     -1.381300    1.779300   -0.158000
H     -0.579700    1.807900    1.417500
H     -0.940800   -0.530300    0.604000
H     -0.400200   -0.917000   -1.891300
H      1.909800   -0.180600   -2.630500
H      1.916000    1.102900   -1.345000
H      2.067800   -1.974800   -0.847000
H      1.014000   -1.368400    1.431200
H      2.534600    1.246000    0.885300
H      1.811300    0.782100    2.429800
H      3.146500   -0.161400    1.757100
