16
gdb_7885
C      0.016400    1.491800    0.052500
C      0.011800   -0.001800   -0.003700
C      0.056400   -0.768100   -1.100400
C     -0.034000   -2.237800   -0.791000
O      0.892000   -3.049600   -1.475800
C      0.220000   -2.239600    0.726700
O      0.674100   -3.184800    1.318600
C     -0.053900   -0.836300    1.261000
H      0.854400    1.859500    0.657900
H      0.095500    1.930100   -0.945800
H     -0.898400    1.874400    0.523000
H      0.107000   -0.396600   -2.117400
H     -1.064000   -2.605000   -0.968100
H      1.159800   -3.732100   -0.844100
H      0.674600   -0.553700    2.029700
H     -1.043200   -0.799900    1.740100
