18
gdb_7633
C      0.027400    1.623100   -0.096000
C      0.026600    0.097900    0.091500
C     -1.362700   -0.401200    0.512300
C      0.560200   -0.577300   -1.168700
C      0.538200   -2.111500   -1.314200
C     -0.412100   -1.827500   -2.477400
O     -1.016200   -2.440900   -3.296300
O     -0.371600   -0.466200   -2.311400
H      1.027600    1.996500   -0.339700
H     -0.646400    1.910400   -0.909700
H     -0.307400    2.127600    0.815100
H      0.744900   -0.152400    0.886000
H     -2.100900   -0.198000   -0.268900
H     -1.377500   -1.474700    0.723000
H     -1.686000    0.112600    1.422200
H      1.515600   -0.130000   -1.459800
H      1.478100   -2.579600   -1.611400
H      0.092000   -2.677800   -0.496100
