12
gdb_11689
O      0.060500    0.005900   -0.014500
C      0.016600    1.195600    0.049800
C     -1.146100    2.231900    0.116400
C     -0.067800    3.312400   -0.105600
O      0.826400    3.191100    1.006100
C      1.049400    2.310800   -0.108400
C     -0.183100    4.544200   -0.803700
C     -0.329000    5.580200   -1.395600
H     -1.832800    2.092100   -0.722800
H     -1.700000    2.317800    1.052500
H      2.023500    2.330000   -0.582900
H     -0.445900    6.498500   -1.917000
