17
gdb_13276
O     -0.427800    1.575600    0.296800
C     -0.019600    0.224600    0.276800
C     -1.177000   -0.696000   -0.114600
N     -1.714000   -0.226200   -1.390900
C     -2.198700   -1.042500   -2.203300
C     -2.814000   -0.957200   -3.584100
C     -2.943100   -2.487100   -3.434800
O     -2.343500   -2.415800   -2.104200
H     -0.935400    1.694200   -0.517300
H      0.818300    0.067100   -0.423300
H      0.336300   -0.025900    1.282100
H     -0.850500   -1.743600   -0.149500
H     -1.965500   -0.612800    0.644600
H     -3.751800   -0.401500   -3.632700
H     -2.140500   -0.604100   -4.366500
H     -3.958200   -2.887000   -3.382600
H     -2.330500   -3.092800   -4.106600
