13
gdb_20449
C      0.991700    1.187900    0.118900
N      0.518400    0.114100   -0.762800
C     -0.339200    0.550800    0.348400
C     -0.555200   -0.450300    1.408000
C     -0.075500   -1.714600    1.550400
O     -0.546800   -2.231600    2.682000
N     -1.374300   -1.223700    3.268200
N     -1.352000   -0.220500    2.510300
H      1.826500    0.919000    0.759100
H      1.005400    2.209100   -0.252300
H      0.178400    0.493600   -1.641500
H     -1.209800    1.163700    0.129100
H      0.568900   -2.325900    0.942400
