15
gdb_20452
C      1.065900    0.996500    0.012700
N      0.225900    0.155800   -0.848200
C     -0.311600    0.618800    0.444900
C     -0.562700   -0.416600    1.468600
N     -1.377100   -0.160900    2.492600
N     -1.361900   -1.293800    3.222100
C     -0.570500   -2.257700    2.691400
C     -0.028600   -1.725700    1.543100
H      1.918600    0.487700    0.453400
H      1.245900    2.031500   -0.267200
H     -0.167100    0.706500   -1.606300
H     -1.050600    1.415800    0.441300
H     -1.920600   -1.342600    4.056500
H     -0.463800   -3.224200    3.158300
H      0.634100   -2.202500    0.840900
