21
gdb_5954
C      0.194900    1.522300    0.008300
C     -0.045300    0.010400    0.002500
C     -1.522700   -0.446500    0.014300
C     -2.246700    0.026300    1.288200
C     -2.270900    0.039800   -1.240400
N     -1.467900   -1.926200    0.005800
C     -2.528400   -2.770900    0.011300
O     -3.702200   -2.454400    0.023900
H      1.269000    1.730500   -0.000900
H     -0.240400    2.007700   -0.869700
H     -0.223400    1.998200    0.899600
H      0.435900   -0.423100   -0.885000
H      0.452700   -0.432500    0.876000
H     -2.336200    1.115900    1.300700
H     -3.248800   -0.403300    1.326300
H     -1.698600   -0.285300    2.183400
H     -1.740200   -0.262100   -2.149300
H     -3.273600   -0.389400   -1.263900
H     -2.360500    1.129500   -1.239500
H     -0.554500   -2.352600   -0.005300
H     -2.198700   -3.830900    0.002200
