17
gdb_10742
C     -0.090500    1.494900   -0.131100
C      0.014500   -0.032400    0.038100
N      0.769300   -0.320200    1.261400
C     -1.358000   -0.601300    0.082700
N     -2.417900   -1.060900    0.147100
C      0.787200   -0.637300   -1.136600
C      0.599100   -2.043300   -1.570100
N      0.155900   -0.924600   -2.424800
H      0.917800    1.915000   -0.150500
H     -0.604700    1.748100   -1.060900
H     -0.641300    1.942300    0.701300
H      0.303300    0.082500    2.069400
H      0.821900   -1.323200    1.412900
H      1.778600   -0.197000   -1.213200
H      1.445300   -2.606800   -1.951300
H     -0.162700   -2.637300   -1.072200
H     -0.856300   -0.831100   -2.354600
