17
gdb_9514
C     -0.110100    1.604900   -0.005700
C     -0.037900    0.081100   -0.052000
C     -1.420200   -0.570500    0.130300
O     -1.956700   -0.269900    1.398700
C      0.875600   -0.535000   -1.141400
O      1.763600   -1.073000   -0.103000
C      0.964100   -0.561800    0.887900
N      1.012600   -0.672800    2.139500
H      0.885900    2.057100   -0.014000
H     -0.668000    1.983900   -0.869100
H     -0.629800    1.920200    0.901400
H     -2.124100   -0.180800   -0.614300
H     -1.335300   -1.658300   -0.029600
H     -1.287100   -0.514800    2.055400
H      0.449500   -1.345900   -1.737800
H      1.408200    0.173800   -1.779200
H      1.804700   -1.237000    2.450100
