17
gdb_19611
C      0.009700    1.587400   -0.000200
C      0.080700    0.074100   -0.095400
C      0.717400   -0.658900   -1.292300
C      1.231900   -1.690900   -0.208800
C      2.336400   -0.725500    0.052100
C      2.171000   -0.109900   -1.341800
O      2.993600   -0.713700   -2.315900
N      1.052100   -0.636700    0.822500
H      0.979600    2.066900   -0.153200
H     -0.688200    1.984100   -0.745800
H     -0.352600    1.880500    0.990400
H     -0.902200   -0.353800    0.130700
H      0.188400   -0.860800   -2.222500
H      1.098500   -2.748000   -0.021000
H      3.243100   -0.849600    0.630600
H      2.309300    0.965500   -1.475400
H      2.967500   -1.667800   -2.172700
