15
gdb_7619
C      0.310700    0.264800    0.969400
C     -0.377200    0.704400   -0.301900
O     -0.196300    1.777500   -0.827500
C     -1.331500   -0.281000   -0.966200
C     -0.691200   -1.281400   -1.964800
C     -1.199600   -2.325400   -0.993200
N     -1.173300   -3.574800   -0.943500
O     -1.742600   -1.398000   -0.117300
H      0.998000    1.043700    1.299900
H     -0.435200    0.060400    1.744600
H      0.853000   -0.674400    0.812500
H     -2.198700    0.259900   -1.350800
H     -1.141400   -1.310500   -2.957200
H      0.394900   -1.231100   -2.060100
H     -1.641200   -3.929600   -0.108000
