17
gdb_20885
C      0.007100    1.565300    0.010600
C      0.008100    0.034900    0.002500
C     -1.413300   -0.540600    0.012200
N     -1.441800   -1.997400    0.004800
C     -1.427900   -2.836400   -1.074000
N     -1.401100   -4.089400   -0.697000
N     -1.391900   -4.096600    0.684200
C     -1.413700   -2.847600    1.074500
H      1.028000    1.956200    0.003200
H     -0.510300    1.968700   -0.866700
H     -0.493800    1.959300    0.901700
H      0.535700   -0.339700   -0.882300
H      0.551400   -0.349100    0.873600
H     -1.957300   -0.198200    0.898500
H     -1.973100   -0.188700   -0.860500
H     -1.446400   -2.481200   -2.093200
H     -1.418700   -2.502900    2.097500
