17
gdb_10620
C     -0.011400    1.506000   -0.132700
C      0.052500    0.009900    0.058000
N      1.366200   -0.637600    0.004500
C      0.609400   -0.668500    1.280500
C      1.261900    0.062700    2.441100
N      2.386600   -0.731200    2.928000
C     -0.021500   -1.924500    1.633400
N     -0.543400   -2.924400    1.890200
H      0.875300    2.002700    0.264000
H     -0.071900    1.736900   -1.201400
H     -0.899700    1.923000    0.352300
H     -0.772200   -0.531000   -0.403300
H      1.316200   -1.539200   -0.462900
H      1.529400    1.074500    2.105400
H      0.531800    0.168400    3.251300
H      3.111800   -0.749400    2.217000
H      2.789800   -0.302000    3.754000
