17
gdb_3984
C      0.136000    1.547500   -0.018500
C     -0.027000    0.051100   -0.026100
C     -0.003600   -0.718100    1.269100
C      1.386100   -0.696500    1.947200
C      1.397900   -1.539100    3.202900
O      1.689300   -1.138700    4.299800
N     -0.184700   -0.646600   -1.086000
O     -0.171600    0.153500   -2.239500
H      1.098700    1.835200   -0.455200
H     -0.636200    2.013000   -0.637500
H      0.079700    1.950900    0.994700
H     -0.742400   -0.289400    1.958800
H     -0.300000   -1.750700    1.062700
H      2.121100   -1.121200    1.249600
H      1.700700    0.318000    2.206200
H      1.098700   -2.601800    3.041800
H     -0.330000   -0.492700   -2.935600
