11
gdb_3690
C     -0.006600    1.488100    0.017600
C     -0.011700   -0.007200   -0.016900
N      0.144900   -0.622900   -1.192400
C      0.123800   -1.944200   -1.102300
N     -0.034800   -2.650400    0.022700
N     -0.184100   -1.975200    1.148200
N     -0.175500   -0.655700    1.150100
H      0.937900    1.865800   -0.386100
H     -0.805100    1.877000   -0.622000
H     -0.142600    1.845200    1.038000
H      0.244700   -2.521800   -2.015400
