19
gdb_13108
C     -0.084000    1.548400   -0.079600
C     -0.038900    0.020400   -0.001800
C      0.796100   -0.487700    1.180100
C      0.813000   -2.012100    1.286200
C      1.453700   -2.656000    2.537100
O      0.171100   -3.261100    2.893800
C     -0.447500   -2.684900    1.803500
N     -1.645800   -2.723800    1.434000
H      0.920700    1.973500   -0.185200
H     -0.678800    1.884200   -0.934400
H     -0.530800    1.977400    0.824300
H     -1.053300   -0.384300    0.081500
H      0.377300   -0.383900   -0.934200
H      1.830300   -0.129100    1.086900
H      0.405400   -0.065800    2.115700
H      1.160400   -2.457700    0.348900
H      2.213700   -3.421900    2.366100
H      1.782200   -1.958800    3.313000
H     -2.215200   -3.281500    2.073100
