13
gdb_8762
C     -0.387000    1.394500   -0.153000
N      0.000100   -0.021200   -0.070100
C      0.020500   -0.621900    1.202500
O     -0.261600   -0.035600    2.215600
C      0.347500   -0.808000   -1.157800
O      0.666400   -1.977900   -1.077800
C      0.343500   -0.206900   -2.574500
O      0.064400    0.916900   -2.889300
H      0.419400    1.995000   -0.574000
H     -1.275300    1.520000   -0.771900
H     -0.594800    1.710900    0.868200
H      0.321700   -1.675000    1.151500
H      0.647700   -0.990200   -3.297300
