14
gdb_16690
O     -0.000300    1.391900   -0.126600
C      0.023800   -0.005200   -0.033200
C      0.018100   -0.617100    1.403000
C     -1.463000   -0.199100    1.508900
C     -1.427500   -0.602200   -0.008400
C     -1.053100   -2.068900    0.133700
O     -1.437400   -3.063400   -0.399600
O     -0.062400   -2.037400    1.095800
H      0.903100    1.716600   -0.053600
H      0.733700   -0.462500   -0.734000
H      0.778600   -0.445800    2.162200
H     -2.098300   -0.779400    2.180300
H     -1.597400    0.871900    1.646700
H     -2.191500   -0.348000   -0.737000
