22
gdb_8399
C     -0.000700    1.534300    0.021600
C     -0.005000    0.000500   -0.054100
C     -1.435000   -0.554400    0.020700
C      0.716200   -0.494200   -1.291900
C      2.198000   -0.209200   -1.701600
C      1.626700   -1.118700   -2.822600
C      0.980200   -1.979300   -1.703800
C      0.346700   -0.238100   -2.793400
H      1.017900    1.934100    0.006200
H     -0.544200    1.969800   -0.824700
H     -0.484300    1.881300    0.940500
H      0.551900   -0.382300    0.814100
H     -2.036200   -0.203400   -0.825900
H     -1.442400   -1.648600    0.005100
H     -1.933000   -0.227800    0.939400
H      2.442900    0.819600   -1.981900
H      2.972900   -0.643000   -1.061900
H      2.152800   -1.479600   -3.707000
H      1.661700   -2.549000   -1.064300
H      0.107300   -2.575300   -1.986000
H     -0.574800   -0.700500   -3.159200
H      0.449600    0.788300   -3.157400
