16
gdb_17342
O     -0.104900    1.425400    0.102800
C     -0.040300    0.034000    0.058500
C     -0.312700   -0.738000   -1.206300
C     -1.298400   -0.791900   -0.052000
C     -1.235900   -1.939100    0.962000
C      0.132000   -1.828600    1.627000
O      1.248300   -1.981700    0.735500
C      0.838400   -0.654900    1.091600
H      0.627600    1.775200   -0.416400
H     -0.629600   -0.151700   -2.062700
H      0.302600   -1.602300   -1.424500
H     -2.247800   -0.291600   -0.204100
H     -2.012800   -1.807500    1.723800
H     -1.385800   -2.925300    0.509400
H      0.289600   -2.224400    2.627900
H      1.556200   -0.061000    1.651500
