17
gdb_8351
O     -0.158200   -0.002400    0.002800
C     -0.005700    1.200100    0.008100
N      1.200400    1.831700    0.000400
C      2.446700    1.132100   -0.015700
C      2.976400    0.151800   -1.106600
C      4.099800    0.265000   -0.036300
C      3.841800    1.803200   -0.022400
C      2.994600    0.135400    1.050900
H     -0.849200    1.920100    0.020000
H      1.214100    2.839500    0.005000
H      2.455600   -0.803300   -1.183300
H      3.187600    0.586700   -2.087500
H      5.068300   -0.229800   -0.048300
H      4.116400    2.355000   -0.926400
H      4.131700    2.341200    0.885100
H      3.222500    0.555400    2.034600
H      2.475000   -0.820700    1.122000
