13
gdb_4724
C      0.013400    1.504100    0.007000
C      0.000000    0.013400   -0.026200
C     -0.078200   -0.831900   -1.087300
O     -0.056600   -2.114400   -0.628000
C      0.035900   -1.984200    0.724700
N      0.072700   -0.747600    1.131000
C      0.079600   -3.162700    1.498600
C      0.116600   -4.169900    2.154600
H      0.930700    1.874100    0.476000
H     -0.051000    1.920500   -1.001400
H     -0.827800    1.887300    0.593600
H     -0.149500   -0.705400   -2.154200
H      0.149700   -5.056000    2.739700
