16
gdb_6695
C     -0.814600    0.376700    0.345000
C      0.417700   -0.017200   -0.463600
O      1.024800    1.103000   -1.089500
C      1.475900   -0.772600    0.384700
C      1.013800   -2.048100    0.903400
C      0.606700   -3.111500    1.315300
C      0.154800   -4.307900    1.780100
C     -0.247200   -5.369600    2.192100
H     -0.536900    1.044000    1.171500
H     -1.532100    0.900100   -0.292200
H     -1.300000   -0.503000    0.776000
H      0.119000   -0.673600   -1.288100
H      1.155200    1.783100   -0.419100
H      2.361000   -0.921100   -0.245100
H      1.788900   -0.125100    1.217000
H     -0.598100   -6.303800    2.554100
