14
gdb_20362
C     -0.121900    1.457300   -0.058200
C      1.263700    0.921700    0.108500
C      0.091300   -0.044900    0.045800
C     -0.331300   -0.765000    1.245100
N     -0.809400   -1.976100    1.324200
C     -1.021200   -2.105500    2.673300
N     -0.707400   -1.068000    3.397500
O     -0.238500   -0.154900    2.437100
H     -0.582900    1.946700    0.791600
H     -0.423500    1.839900   -1.026100
H      1.934600    0.928400   -0.742600
H      1.744500    1.047100    1.071400
H     -0.028800   -0.635300   -0.853200
H     -1.422100   -3.000300    3.127500
