20
gdb_14801
C      0.767300    1.601800   -0.288800
O      0.860700    0.203400   -0.160800
C     -0.254100   -0.471900   -0.691900
C     -0.028000   -1.962100   -0.487400
O     -1.144100   -2.644300   -1.016200
C     -1.062900   -4.053500   -0.900500
C     -2.258900   -4.622800   -1.646900
O     -2.245700   -4.241000   -3.007800
H      0.701400    1.911900   -1.343700
H     -0.111200    2.002600    0.241200
H      1.671000    2.031600    0.149900
H     -1.185500   -0.164800   -0.188500
H     -0.376100   -0.258400   -1.766900
H      0.900900   -2.270800   -0.991700
H      0.091500   -2.174000    0.586500
H     -0.127600   -4.418400   -1.353800
H     -1.076500   -4.362200    0.157600
H     -2.228600   -5.716900   -1.614500
H     -3.183200   -4.295000   -1.144700
H     -2.097300   -3.288000   -3.007500
