17
gdb_7081
C     -0.103600    1.562300    0.006100
C     -0.011700    0.039300   -0.022900
C      0.747000   -0.524000    1.184500
C      0.936600   -2.026600    1.119600
O      2.002500   -2.575300    1.237800
O     -1.326300   -0.540200    0.017700
C     -1.981200   -0.673800   -1.153900
N     -3.186500   -1.045000   -1.163800
H      0.895200    2.008200   -0.016900
H     -0.663600    1.933100   -0.857600
H     -0.615700    1.894000    0.914100
H      0.487400   -0.282700   -0.948800
H      1.729200   -0.053100    1.273300
H      0.164300   -0.290400    2.086000
H      0.003600   -2.605300    0.953100
H     -1.358700   -0.449400   -2.031800
H     -3.518500   -1.123800   -2.122700
