17
gdb_16672
O     -0.399800    1.154800    1.074000
C     -0.057400    0.133100    0.144400
C      0.942400   -0.891600    0.726200
C      0.053200   -1.921400    1.406500
N     -1.005100   -1.278500    2.224900
C     -1.323200   -1.796400    0.869100
C     -1.333400   -0.701600   -0.192800
O     -2.491500    0.091600   -0.236500
H     -0.649900    0.672900    1.882900
H      0.333300    0.646300   -0.736800
H      1.513200   -1.372000   -0.077000
H      1.651500   -0.408200    1.404700
H      0.459600   -2.870900    1.738600
H     -1.346800   -1.925700    2.929400
H     -1.998000   -2.641400    0.786200
H     -1.218000   -1.182700   -1.173500
H     -2.288200    0.854100    0.326700
