11
gdb_21633
N      0.009900    1.294000   -0.117100
C     -0.047200   -0.037100   -0.018600
N     -1.167300   -0.697100    0.059000
C     -1.024100   -2.053300    0.154000
N      0.044300   -2.778300    0.178600
O      1.258200   -2.046900    0.093400
C      1.288400   -0.706000   -0.005100
O      2.329800   -0.101400   -0.076600
H      0.917400    1.728000   -0.172500
H     -0.835700    1.838900   -0.134300
H     -1.939100   -2.635200    0.220500
