17
gdb_9492
C     -0.456500    1.413900    0.007300
C      0.209300    0.059000   -0.060200
O      1.520400    0.092800   -0.664800
C      2.042800   -0.826900    0.306300
C      0.804700   -0.620200    1.227100
C      1.074900    0.310400    2.414200
C      0.117400   -1.831400    1.655400
N     -0.433800   -2.791400    1.989700
H      0.153000    2.142900    0.545900
H     -0.613800    1.787400   -1.009300
H     -1.434100    1.335600    0.494000
H     -0.437300   -0.650800   -0.595400
H      2.137800   -1.845100   -0.090400
H      3.002300   -0.498600    0.718900
H      1.635200    1.188000    2.082600
H      0.143500    0.643500    2.879500
H      1.667400   -0.208500    3.172900
