17
gdb_6675
N     -0.035000    1.347300    0.164100
C      0.054100    0.033400   -0.192400
O      1.084400   -0.460700   -0.607200
C     -1.245800   -0.761000   -0.053100
C     -0.981700   -2.251900    0.166800
C     -2.265600   -3.095200    0.123000
C     -1.970400   -4.572500    0.254100
O     -2.467300   -5.307900    1.067300
H      0.773400    1.933600    0.035700
H     -0.889400    1.762900    0.489600
H     -1.864500   -0.348200    0.752800
H     -1.814600   -0.616600   -0.982300
H     -0.273200   -2.590000   -0.595900
H     -0.480700   -2.393800    1.131400
H     -2.973300   -2.812100    0.908300
H     -2.761200   -2.946300   -0.848400
H     -1.224700   -4.954300   -0.483100
