22
gdb_17622
C     -0.196400    1.517300   -0.064100
C     -0.030800   -0.009500   -0.085200
C     -1.385900   -0.675600   -0.371800
C      1.064100   -0.465500   -1.081800
C      2.437100    0.170800   -0.806300
C      1.220400   -1.975400   -1.072700
C      0.644900   -2.857000   -2.095800
O      2.036000   -2.535400   -2.106700
H      0.712200    2.030800    0.259900
H     -0.460200    1.896200   -1.059100
H     -0.999700    1.806200    0.621600
H      0.292600   -0.324300    0.918900
H     -1.745200   -0.415100   -1.374800
H     -1.332700   -1.765700   -0.310200
H     -2.141100   -0.338200    0.345400
H      0.749200   -0.176300   -2.094800
H      3.186100   -0.256300   -1.478300
H      2.424300    1.252400   -0.959300
H      2.759200   -0.019900    0.224600
H      1.412200   -2.409400   -0.087400
H      0.404200   -3.892100   -1.855400
H      0.059500   -2.423300   -2.905800
